geometry optimzed in LAMMPS
_audit_creation_date              2020-11-30 
_audit_creation_method            'lammps2cif' 
_symmetry_space_group_name_H-M    'P1' 
_symmetry_Int_Tables_number       1 
_symmetry_cell_setting            triclinic 
loop_ 
_symmetry_equiv_pos_as_xyz 
  x,y,z 
_cell_length_a                    43.45175605 
_cell_length_b                    43.52452390855775 
_cell_length_c                    37.29049727741817 
_cell_angle_alpha                 90.76998567508703 
_cell_angle_beta                  85.98323783191356 
_cell_angle_gamma                 94.16801869286272 
loop_ 
_atom_site_label 
_atom_site_type_symbol 
_atom_site_fract_x 
_atom_site_fract_y 
_atom_site_fract_z 
_atom_site_charge 
N1          N  0.98132663  0.21600617  0.02698752    -0.34600
N2          N  0.51302535  0.21903828  0.45240434    -0.55100
N3          N  0.52004501  0.28663753  0.45823119    -0.34600
N4          N  0.98687298  0.28369522  0.02966261    -0.55100
C5          C  0.48290541  0.18893581  0.00101281     0.29000
C6          C  0.95974657  0.22168715  0.05360859     0.29000
C7          C  0.53144923  0.28182429  0.42413839     0.29000
C8          C  0.03559972  0.31264669  0.46241476     0.29000
C9          C  0.51059141  0.18817969  0.45693317     0.37600
C10         C  0.53595527  0.22514744  0.42669043     0.37600
C11         C  0.97487045  0.27733527  0.06331147     0.37600
C12         C  0.99883226  0.31322896  0.03044843     0.37600
C13         C  0.45572617  0.17595671  0.01808989    -0.19900
C14         C  0.94099698  0.19504948  0.06098033    -0.19900
C15         C  0.53167728  0.30886535  0.40469215    -0.19900
C16         C  0.04204091  0.32655034  0.42928172    -0.19900
C17         C  0.53212402  0.17454402  0.43388341    -0.20900
C18         C  0.54820686  0.19799928  0.41468755    -0.20900
C19         C  0.97912741  0.30296389  0.08546640    -0.20900
C20         C  0.99452114  0.32563623  0.06466550    -0.20900
C21         C  0.48844307  0.17215268  0.48068133    -0.16300
C22         C  0.95898420  0.24919191  0.07396927    -0.16300
C23         C  0.01175447  0.32945746  0.99990292    -0.16300
C24         C  0.54247806  0.25405342  0.41024531    -0.16300
H25         H  0.44597801  0.15248384  0.01571016     0.16600
H26         H  0.92211540  0.19199349  0.08143167     0.16600
H27         H  0.53954037  0.31265160  0.37682586     0.16600
H28         H  0.03875755  0.35007133  0.42224060     0.16600
H29         H  0.53560130  0.15024890  0.43085006     0.14900
H30         H  0.56620807  0.19534484  0.39353026     0.14900
H31         H  0.97196428  0.30515773  0.11369122     0.14900
H32         H  0.00173063  0.34857129  0.07378875     0.14900
H33         H  0.00056799  0.23067052  0.01962369     0.28200
H34         H  0.52013924  0.27144675  0.47952246     0.28200
N35         N  0.02144553  0.21091865  0.27194173    -0.34600
N36         N  0.03015704  0.27841920  0.26873103    -0.55100
N37         N  0.98552447  0.27797752  0.21662284    -0.34600
N38         N  0.97494902  0.21051755  0.22052818    -0.55100
C39         C  0.03422456  0.21845691  0.30312748     0.29000
C40         C  0.00664072  0.18261002  0.27630759     0.29000
C41         C  0.98849421  0.30865478  0.22365713     0.29000
C42         C  0.96139769  0.27267470  0.19596396     0.29000
C43         C  0.05307862  0.27258183  0.28957143     0.37600
C44         C  0.03420449  0.30851653  0.26000758     0.37600
C45         C  0.98011298  0.18024244  0.22042007     0.37600
C46         C  0.96270978  0.21574420  0.18911193     0.37600
C47         C  0.02702239  0.19482759  0.32767549    -0.19900
C48         C  0.00949147  0.17226156  0.31075891    -0.19900
C49         C  0.96564008  0.32294086  0.20736764    -0.19900
C50         C  0.94867509  0.30024049  0.18969695    -0.19900
C51         C  0.07205174  0.29917619  0.29418292    -0.20900
C52         C  0.06007145  0.32200518  0.27535788    -0.20900
C53         C  0.97048244  0.16602734  0.18927945    -0.20900
C54         C  0.95950425  0.18856276  0.16934956    -0.20900
C55         C  0.05350656  0.24530052  0.30925860    -0.16300
C56         C  0.99250107  0.16539485  0.24885763    -0.16300
C57         C  0.95408971  0.24459192  0.17814214    -0.16300
C58         C  0.01303900  0.32425097  0.24132251    -0.16300
H59         H  0.03367728  0.19382043  0.35495796     0.16600
H60         H  0.00003539  0.15068046  0.32246369     0.16600
H61         H  0.96228936  0.34731747  0.20688206     0.16600
H62         H  0.92987940  0.30373513  0.17296077     0.16600
H63         H  0.09162926  0.30208582  0.31064247     0.14900
H64         H  0.06876709  0.34593415  0.27413184     0.14900
H65         H  0.97167700  0.14210479  0.18139480     0.14900
H66         H  0.95036434  0.18529540  0.14320156     0.14900
H67         H  0.02556289  0.22284331  0.24783195     0.28200
H68         H  0.00159895  0.26207953  0.22062810     0.28200
O69         O  0.47840546  0.01596315  0.41868326    -0.76500
C70         C  0.41405958  0.99941015  0.01198290     0.84600
O71         O  0.01813133  0.07136800  0.03124132    -0.77600
O72         O  0.48441928  0.48301896  0.09349828    -0.79100
O73         O  0.02360754  0.42748878  0.48602589    -0.78900
O74         O  0.01978876  0.47901389  0.41869889    -0.77500
Zn75       Zn  0.47238486  0.02469583  0.47372032     1.55700
O76         O  0.48332820  0.42887523  0.02663231    -0.78900
Cd77       Cd  0.03092031  0.47393962  0.47282725     1.59700
Cd78       Cd  0.02632983  0.02603246  0.03916264     1.59600
O79         O  0.07762613  0.48715169  0.47690228    -0.78900
O80         O  0.99886912  0.99933782  0.00825110    -1.89400
Cd81       Cd  0.47749531  0.47486384  0.03820510     1.59900
O82         O  0.07242520  0.02064889  0.02391093    -0.78800
O83         O  0.43233461  0.48210944  0.02963855    -0.77500
C84         C  0.00168081  0.08477014  0.01012239     0.85000
C85         C  0.99664871  0.99653825  0.40314687     0.84700
O86         O  0.42793656  0.01183773  0.48922143    -0.76400
C87         C  0.99446687  0.41489603  0.01161943     0.85500
O88         O  0.48019032  0.07116469  0.48284295    -0.76500
C89         C  0.08585698  0.00259206  0.00168430     0.85600
C90         C  0.00233354  0.99690084  0.11274339     0.86000
O91         O  0.01969001  0.01697302  0.09475960    -0.79000
O92         O  0.48935512  0.01977333  0.16651716    -0.76500
C93         C  0.41449792  0.00200489  0.25044557     0.84600
O94         O  0.02616892  0.06542205  0.27922008    -0.77600
O95         O  0.48588173  0.48266445  0.34420641    -0.79100
O96         O  0.01745583  0.42453009  0.23592403    -0.78900
O97         O  0.01834633  0.47881796  0.16827952    -0.77500
Zn98       Zn  0.47899075  0.02660751  0.22071418     1.55700
O99         O  0.48206777  0.42815658  0.27848648    -0.78900
Cd100      Cd  0.02604542  0.47136296  0.22320630     1.59700
Cd101      Cd  0.02885672  0.01851650  0.28808679     1.59600
O102        O  0.07254197  0.48439323  0.22882620    -0.78900
O103        O  0.99970590  0.99495822  0.25649676    -1.89400
Cd104      Cd  0.47590548  0.47430293  0.28991848     1.59900
O105        O  0.07343525  0.00684792  0.27324782    -0.78800
O106        O  0.42997745  0.48296901  0.28461639    -0.77500
C107        C  0.00899918  0.08012463  0.26008896     0.85000
C108        C  0.00331472  0.99594273  0.15256030     0.84700
O109        O  0.43297209  0.01742137  0.22828061    -0.76400
C110        C  0.99939133  0.40995165  0.25956468     0.85500
O111        O  0.49014932  0.07122371  0.23230539    -0.76500
C112        C  0.08589138  0.98826994  0.25080686     0.85600
C113        C  0.00144932  0.49751561  0.36418994     0.86000
O114        O  0.01949636  0.00990632  0.34413131    -0.79000
N115        N  0.28704934  0.03311322  0.03021499    -0.34600
N116        N  0.28057750  0.98679499  0.46870808    -0.55100
N117        N  0.21428442  0.99420160  0.47343748    -0.34600
N118        N  0.22089459  0.04285251  0.03453552    -0.55100
C119        C  0.31746620  0.03118700  0.02065143     0.29000
C120        C  0.28489896  0.05142542  0.05957479     0.29000
C121        C  0.21886559  0.98132224  0.44044763     0.29000
C122        C  0.18738429  0.00814790  0.47383046     0.29000
C123        C  0.31093874  0.98448107  0.47277443     0.37600
C124        C  0.27219976  0.96524900  0.44425319     0.37600
C125        C  0.22755704  0.05247756  0.06794103     0.37600
C126        C  0.18965970  0.03951404  0.03475722     0.37600
C127        C  0.33481022  0.04951055  0.04379200    -0.19900
C128        C  0.31422120  0.06167190  0.06886895    -0.19900
C129        C  0.19487448  0.98753415  0.41958145    -0.19900
C130        C  0.17509272  0.00455834  0.44060437    -0.19900
C131        C  0.32207237  0.96141371  0.45053265    -0.20900
C132        C  0.29745179  0.94911832  0.43249659    -0.20900
C133        C  0.20051591  0.05704036  0.08868235    -0.20900
C134        C  0.17650766  0.04896148  0.06763247    -0.20900
C135        C  0.32998180  0.01121745  0.99391493    -0.16300
C136        C  0.25745193  0.05534286  0.08088806    -0.16300
C137        C  0.17294545  0.02678210  0.00622704    -0.16300
C138        C  0.24326262  0.96288490  0.42922677    -0.16300
H139        H  0.35973250  0.05268206  0.04384538     0.16600
H140        H  0.32009576  0.07584224  0.09182858     0.16600
H141        H  0.19194287  0.98064231  0.39199940     0.19600
H142        H  0.15391960  0.01313935  0.43242608     0.16600
H143        H  0.34551785  0.95442099  0.44735158     0.14900
H144        H  0.29828950  0.93113361  0.41218853     0.14900
H145        H  0.19831487  0.06452889  0.11648490     0.14900
H146        H  0.15220103  0.04871491  0.07626743     0.14900
H147        H  0.26878379  0.01969164  0.02074813     0.28200
H148        H  0.22663864  0.99031725  0.49564804     0.28200
N149        N  0.27610825  0.96420361  0.28750062    -0.34600
N150        N  0.21008825  0.94955540  0.27683182    -0.55100
N151        N  0.21843848  0.99129446  0.21687349    -0.34600
N152        N  0.28456292  0.00284176  0.22636781    -0.55100
C153        C  0.26776967  0.94054125  0.30986706     0.29000
C154        C  0.30730258  0.96588450  0.28232975     0.29000
C155        C  0.19017977  0.97727024  0.21187736     0.29000
C156        C  0.22886610  0.00512573  0.18569130     0.29000
C157        C  0.21109880  0.94171183  0.31161283     0.37600
C158        C  0.18024957  0.95430799  0.27205317     0.37600
C159        C  0.31188611  0.00986531  0.24082720     0.37600
C160        C  0.28028939  0.02586981  0.20382252     0.37600
C161        C  0.29379718  0.92674757  0.31911377    -0.19900
C162        C  0.31882540  0.94243539  0.30120893    -0.19900
C163        C  0.18265297  0.98188061  0.17698850    -0.19900
C164        C  0.20717664  0.99927080  0.16034014    -0.19900
C165        C  0.18166061  0.94026900  0.32868780    -0.20900
C166        C  0.16199251  0.94797808  0.30342766    -0.20900
C167        C  0.32492051  0.03786740  0.22763382    -0.20900
C168        C  0.30506388  0.04778816  0.20371918    -0.20900
C169        C  0.23843039  0.93613725  0.32786004    -0.16300
C170        C  0.32535192  0.99002418  0.26417061    -0.16300
C171        C  0.25575731  0.02545862  0.18102567    -0.16300
C172        C  0.16966454  0.96427939  0.23951368    -0.16300
H173        H  0.29463623  0.90819226  0.33798584     0.16600
H174        H  0.34278719  0.93785025  0.30318922     0.16600
H175        H  0.16135104  0.97426497  0.16511523     0.16600
H176        H  0.20845144  0.00732627  0.13296798     0.16600
H177        H  0.17508839  0.93433431  0.35639872     0.14900
H178        H  0.13727881  0.94950014  0.30794156     0.14900
H179        H  0.34642076  0.04993747  0.23437825     0.14900
H180        H  0.30847404  0.06863310  0.18799290     0.14900
H181        H  0.26164990  0.98117376  0.28149238     0.28200
H182        H  0.22798218  0.99513865  0.24148666     0.28200
C183        C  0.23796103  0.93564531  0.36646315    -0.11200
C184        C  0.24002484  0.94464327  0.39687950    -0.12800
C185        C  0.25916714  0.04458577  0.14937703    -0.11200
C186        C  0.25961318  0.05447348  0.11932325    -0.12800
C187        C  0.11983638  0.98691335  0.25077086    -0.14400
C188        C  0.13578563  0.96424805  0.23550056    -0.29600
H189        H  0.13227104  0.00471556  0.26595133     0.14600
H190        H  0.12700618  0.50553340  0.30206684     0.15200
C191        C  0.38116769  0.00118987  0.24475445    -0.14400
C192        C  0.35899652  0.99397262  0.27079938    -0.29600
H193        H  0.36982330  0.48181006  0.28037996     0.14600
H194        H  0.36587306  0.98868800  0.29735917     0.15200
C195        C  0.13843175  0.02722715  0.00912619    -0.14400
C196        C  0.11988282  0.00295908  0.99891506    -0.29600
H197        H  0.12833697  0.04381546  0.51811122     0.14600
H198        H  0.13292606  0.48894372  0.96839556     0.15200
C199        C  0.38006759  0.99896168  0.01518694    -0.14400
C200        C  0.36404674  0.01003836  0.98936044    -0.29600
H201        H  0.37353104  0.47943060  0.02555902     0.14600
H202        H  0.37457981  0.01126329  0.46526390     0.15200
C203        C  0.01668872  0.35856037  0.24012678    -0.14400
C204        C  0.99800440  0.37583693  0.26089733    -0.29600
H205        H  0.03490490  0.36938884  0.22212596     0.14600
H206        H  0.48456975  0.36851532  0.27799817     0.15200
C207        C  0.98955131  0.13099515  0.24985473    -0.14400
C208        C  0.01155966  0.11409488  0.26157427    -0.29600
H209        H  0.47253758  0.12444029  0.22405838     0.14600
H210        H  0.03218577  0.12534749  0.27213040     0.15200
C211        C  0.06883089  0.24705122  0.34222384    -0.11200
C212        C  0.07199283  0.24830277  0.37388065    -0.12800
C213        C  0.94554758  0.24734136  0.11031230    -0.11200
C214        C  0.94374600  0.24634575  0.14250911    -0.12800
C215        C  0.01447866  0.36382605  0.00009388    -0.14400
C216        C  0.99180934  0.38098932  0.01376762    -0.29600
H217        H  0.03508932  0.37520050  0.98654874     0.14600
H218        H  0.46215124  0.37435915  0.51710268     0.15200
C219        C  0.00167188  0.13463713  0.47925860    -0.14400
C220        C  0.00607312  0.11768461  0.50801704    -0.29600
H221        H  0.47922908  0.12647434  0.45429141     0.14600
H222        H  0.01563868  0.13005814  0.03322895     0.15200
N223        N  0.99079218  0.21431356  0.51633944    -0.34600
N224        N  0.53130783  0.21901457  0.95094450    -0.55100
N225        N  0.54145270  0.28659586  0.95625843    -0.34600
N226        N  0.99748242  0.28176632  0.52113009    -0.55100
C227        C  0.46899903  0.18721546  0.50633857     0.29000
C228        C  0.96779213  0.22007130  0.54119433     0.29000
C229        C  0.55404108  0.28154375  0.92271854     0.29000
C230        C  0.02230618  0.31414615  0.96825337     0.29000
C231        C  0.52756537  0.18816231  0.95564479     0.37600
C232        C  0.55446197  0.22421602  0.92521669     0.37600
C233        C  0.98464960  0.27456334  0.55423618     0.37600
C234        C  0.01061479  0.31078728  0.52359390     0.37600
C235        C  0.44474047  0.17272280  0.52738894    -0.19900
C236        C  0.94772784  0.19396804  0.54594923    -0.19900
C237        C  0.55779745  0.30916722  0.90411834    -0.19900
C238        C  0.02856851  0.32807088  0.93508310    -0.19900
C239        C  0.54880859  0.17366483  0.93306145    -0.20900
C240        C  0.56569526  0.19650639  0.91359933    -0.20900
C241        C  0.98970418  0.29907615  0.57778605    -0.20900
C242        C  0.00637683  0.32195538  0.55839018    -0.20900
C243        C  0.50365239  0.17290674  0.97792685    -0.16300
C244        C  0.96725423  0.24672146  0.56298682    -0.16300
C245        C  0.02424599  0.32772478  0.49386185    -0.16300
C246        C  0.56183042  0.25277719  0.90806120    -0.16300
H247        H  0.43631657  0.14872676  0.52641998     0.16600
H248        H  0.92760968  0.19103916  0.56473641     0.16600
H249        H  0.56746804  0.31293899  0.87686015     0.16600
H250        H  0.02575535  0.35174394  0.92824965     0.16600
H251        H  0.55119248  0.14917165  0.93001131     0.14900
H252        H  0.58347949  0.19310748  0.89240065     0.14900
H253        H  0.98223292  0.30038254  0.60600004     0.14900
H254        H  0.01441154  0.34423225  0.56874801     0.14900
H255        H  0.01096884  0.22838394  0.51150123     0.28200
H256        H  0.53831810  0.27072462  0.97699733     0.28200
N257        N  0.01356489  0.21045663  0.77209158    -0.34600
N258        N  0.02203372  0.27755480  0.76771495    -0.55100
N259        N  0.98281172  0.27560262  0.70920468    -0.34600
N260        N  0.97141193  0.20870417  0.71495332    -0.55100
C261        C  0.02378826  0.21856167  0.80454301     0.29000
C262        C  0.99835649  0.18230504  0.77587604     0.29000
C263        C  0.98530790  0.30640107  0.71531636     0.29000
C264        C  0.96096021  0.26992685  0.68551284     0.29000
C265        C  0.04303435  0.27251986  0.79147821     0.37600
C266        C  0.02653369  0.30747115  0.75839155     0.37600
C267        C  0.97522692  0.17827222  0.71748747     0.37600
C268        C  0.96085483  0.21276698  0.68226476     0.37600
C269        C  0.01466822  0.19543144  0.82916491    -0.19900
C270        C  0.99850229  0.17261646  0.81106626    -0.19900
C271        C  0.96437881  0.32036474  0.69556062    -0.19900
C272        C  0.94922643  0.29734494  0.67645924    -0.19900
C273        C  0.06121576  0.29939860  0.79732185    -0.20900
C274        C  0.05074820  0.32160904  0.77624322    -0.20900
C275        C  0.96603839  0.16281466  0.68683892    -0.20900
C276        C  0.95696965  0.18471065  0.66447012    -0.20900
C277        C  0.04213865  0.24566462  0.81212428    -0.16300
C278        C  0.98619386  0.16444055  0.74763783    -0.16300
C279        C  0.95478838  0.24142605  0.66815614    -0.16300
C280        C  0.00761478  0.32242487  0.73586602    -0.16300
H281        H  0.01904677  0.19499334  0.85731367     0.16600
H282        H  0.98806336  0.15129194  0.82250210     0.16600
H283        H  0.96115252  0.34472412  0.69401345     0.16600
H284        H  0.93219688  0.30047154  0.65723109     0.16600
H285        H  0.07927617  0.30287598  0.81584822     0.14900
H286        H  0.05943483  0.34553727  0.77489869     0.14900
H287        H  0.96631640  0.13845609  0.68078633     0.14900
H288        H  0.94869724  0.18048365  0.63800647     0.14900
H289        H  0.01952283  0.22188644  0.74793739     0.28200
H290        H  0.99806059  0.25982038  0.71628131     0.28200
O291        O  0.48062832  0.01643795  0.91687553    -0.76500
C292        C  0.41352409  0.99465405  0.51332830     0.84600
O293        O  0.01901932  0.07038344  0.53017771    -0.77600
O294        O  0.47865012  0.48754165  0.59187098    -0.79100
O295        O  0.01526007  0.42793448  0.98996196    -0.78900
O296        O  0.01520046  0.47595660  0.91977420    -0.77500
Zn297      Zn  0.47464554  0.02586612  0.97202711     1.55700
O298        O  0.47254531  0.43397531  0.52555884    -0.78900
Cd299      Cd  0.02571859  0.47279319  0.97396822     1.59700
Cd300      Cd  0.02637632  0.02491557  0.53917872     1.59600
O301        O  0.07284011  0.48275211  0.97677732    -0.78900
O302        O  0.99809362  0.99883077  0.50826731    -1.89400
Cd303      Cd  0.47170771  0.48076341  0.53649346     1.59900
O304        O  0.07227321  0.01807715  0.52330671    -0.78800
O305        O  0.42832571  0.49308006  0.52628115    -0.77500
C306        C  0.00379766  0.08372463  0.50766436     0.85000
C307        C  0.99766800  0.99642398  0.90447368     0.84700
O308        O  0.42936248  0.01560283  0.98753734    -0.76400
C309        C  0.00494742  0.41276502  0.50881642     0.85500
O310        O  0.48556504  0.07201223  0.98107481    -0.76500
C311        C  0.08502891  0.99964098  0.50089406     0.85600
C312        C  0.00252782  0.99710566  0.61382289     0.86000
O313        O  0.02008818  0.01674889  0.59538194    -0.79000
O314        O  0.49353834  0.01916051  0.66729207    -0.76500
C315        C  0.41697424  0.99951008  0.74734552     0.84600
O316        O  0.02248243  0.06673071  0.78186819    -0.77600
O317        O  0.48603505  0.47788553  0.84360298    -0.79100
O318        O  0.01753859  0.42261886  0.73410765    -0.78900
O319        O  0.02329883  0.47876581  0.66924775    -0.77500
Zn320      Zn  0.48205702  0.02385362  0.72111801     1.55700
O321        O  0.48753887  0.42363905  0.77655636    -0.78900
Cd322      Cd  0.02880838  0.46937806  0.72423065     1.59700
Cd323      Cd  0.02726375  0.02023244  0.79027377     1.59600
O324        O  0.07493966  0.47758682  0.73540294    -0.78900
O325        O  0.99928092  0.99525630  0.75849135    -1.89400
Cd326      Cd  0.47720095  0.46871255  0.78871048     1.59900
O327        O  0.07234937  0.01008408  0.77694201    -0.78800
O328        O  0.43036943  0.47221626  0.78228947    -0.77500
C329        C  0.00492865  0.08042899  0.76223199     0.85000
C330        C  0.00353523  0.99648892  0.65388195     0.84700
O331        O  0.43612367  0.01467466  0.72577656    -0.76400
C332        C  0.00020638  0.40823209  0.75846043     0.85500
O333        O  0.49195256  0.06772236  0.73567155    -0.76500
C334        C  0.08554941  0.99122732  0.75553870     0.85600
C335        C  0.00292271  0.49675819  0.86378893     0.86000
O336        O  0.01863484  0.01157133  0.84581930    -0.79000
N337        N  0.28599796  0.02622713  0.53062741    -0.34600
N338        N  0.28136112  0.99368120  0.96806840    -0.55100
N339        N  0.21472017  0.99933159  0.97498062    -0.34600
N340        N  0.22036085  0.03754911  0.53286514    -0.55100
C341        C  0.31634979  0.02493771  0.52031239     0.29000
C342        C  0.28394728  0.04750758  0.55711884     0.29000
C343        C  0.21871272  0.98567447  0.94234796     0.29000
C344        C  0.18765617  0.01299569  0.97563985     0.29000
C345        C  0.31193691  0.99208246  0.97133109     0.37600
C346        C  0.27280055  0.97135923  0.94463851     0.37600
C347        C  0.22690116  0.04862929  0.56572290     0.37600
C348        C  0.18914961  0.03461042  0.53287447     0.37600
C349        C  0.33367044  0.04605273  0.54039496    -0.19900
C350        C  0.31318194  0.05987702  0.56412453    -0.19900
C351        C  0.19406238  0.99085375  0.92205519    -0.19900
C352        C  0.17470258  0.00841997  0.94286919    -0.19900
C353        C  0.32302730  0.96879528  0.94937656    -0.20900
C354        C  0.29816298  0.95554128  0.93256084    -0.20900
C355        C  0.19987794  0.05427371  0.58592054    -0.20900
C356        C  0.17592804  0.04542627  0.56509542    -0.20900
C357        C  0.32895514  0.00382207  0.49510991    -0.16300
C358        C  0.25683018  0.05279836  0.57821944    -0.16300
C359        C  0.17253594  0.02194079  0.50430231    -0.16300
C360        C  0.24342821  0.96778607  0.93080273    -0.16300
H361        H  0.35856057  0.05039459  0.53899844     0.16600
H362        H  0.31904995  0.07675063  0.58459538     0.16600
H363        H  0.19046707  0.98304162  0.89493177     0.19600
H364        H  0.15322677  0.01649515  0.93492390     0.16600
H365        H  0.34650302  0.96191011  0.94603525     0.14900
H366        H  0.29881966  0.93691002  0.91306368     0.14900
H367        H  0.19766318  0.06330847  0.61309391     0.14900
H368        H  0.15160484  0.04606025  0.57330557     0.14900
H369        H  0.26801169  0.01072890  0.52396758     0.28200
H370        H  0.22756763  0.99601786  0.99690659     0.28200
N371        N  0.27817189  0.96886235  0.78699632    -0.34600
N372        N  0.21156540  0.95755504  0.77899946    -0.55100
N373        N  0.21937223  0.99744839  0.71797320    -0.34600
N374        N  0.28654650  0.00596548  0.72431496    -0.55100
C375        C  0.26971794  0.94706891  0.81182404     0.29000
C376        C  0.30937320  0.96997742  0.78172553     0.29000
C377        C  0.19097493  0.98335321  0.71379135     0.29000
C378        C  0.22995962  0.00931668  0.68580149     0.29000
C379        C  0.21272470  0.94833397  0.81322454     0.37600
C380        C  0.18149046  0.96123987  0.77432140     0.37600
C381        C  0.31494830  0.01164571  0.73663038     0.37600
C382        C  0.28276366  0.02844709  0.70082450     0.37600
C383        C  0.29564347  0.93394960  0.82253031    -0.19900
C384        C  0.32069404  0.94802256  0.80307555    -0.19900
C385        C  0.18350483  0.98606871  0.67856636    -0.19900
C386        C  0.20823664  0.00221910  0.66079131    -0.19900
C387        C  0.18318680  0.94486410  0.82994503    -0.20900
C388        C  0.16329329  0.95274865  0.80509630    -0.20900
C389        C  0.32932335  0.03810750  0.72082602    -0.20900
C390        C  0.30900087  0.04857911  0.69781493    -0.20900
C391        C  0.24010671  0.94291523  0.82939606    -0.16300
C392        C  0.32786038  0.99239425  0.76114485    -0.16300
C393        C  0.25726590  0.02875116  0.67953123    -0.16300
C394        C  0.17058933  0.97122001  0.74199413    -0.16300
H395        H  0.29640140  0.91673393  0.84307278     0.16600
H396        H  0.34457720  0.94337802  0.80556112     0.16600
H397        H  0.16230919  0.97764690  0.66699531     0.16600
H398        H  0.20983640  0.00826658  0.63271069     0.16600
H399        H  0.17665779  0.93714536  0.85706585     0.14900
H400        H  0.13839626  0.95244800  0.80939863     0.14900
H401        H  0.35193366  0.04891584  0.72540944     0.14900
H402        H  0.31310939  0.06854112  0.68067354     0.14900
H403        H  0.26383236  0.98518417  0.77902532     0.28200
H404        H  0.22909657  0.00252164  0.74226668     0.28200
C405        C  0.23899345  0.94106379  0.86791031    -0.11200
C406        C  0.24030213  0.94945178  0.89859233    -0.12800
C407        C  0.26014392  0.04684892  0.64712612    -0.11200
C408        C  0.25963201  0.05497889  0.61648128    -0.12800
C409        C  0.11940751  0.99027170  0.75692555    -0.14400
C410        C  0.13667065  0.97054272  0.73790970    -0.29600
H411        H  0.13073078  0.00623824  0.77537936     0.14600
H412        H  0.12564654  0.45011153  0.73821315     0.15200
C413        C  0.38388444  0.99924197  0.74075158    -0.14400
C414        C  0.36155939  0.99571980  0.76737530    -0.29600
H415        H  0.36979482  0.47382816  0.78553111     0.14600
H416        H  0.36826839  0.99300732  0.79462377     0.15200
C417        C  0.13814682  0.02328358  0.50673945    -0.14400
C418        C  0.11904100  0.99918185  0.49743718    -0.29600
H419        H  0.12813033  0.04727809  0.02111494     0.14600
H420        H  0.13786226  0.49212738  0.47437207     0.15200
C421        C  0.37943730  0.99281572  0.51652948    -0.14400
C422        C  0.36305075  0.00311701  0.49051520    -0.29600
H423        H  0.37062251  0.49475153  0.51597900     0.14600
H424        H  0.37575905  0.01774807  0.96402988     0.15200
C425        C  0.01104352  0.35659772  0.73359556    -0.14400
C426        C  0.99887241  0.37421279  0.76000733    -0.29600
H427        H  0.02179841  0.36698493  0.70907626     0.14600
H428        H  0.49259246  0.36507690  0.77734521     0.15200
C429        C  0.98402206  0.13011862  0.74972723    -0.14400
C430        C  0.00601174  0.11434052  0.76336671    -0.29600
H431        H  0.46879053  0.11951058  0.74010939     0.14600
H432        H  0.02571857  0.12652621  0.77490900     0.15200
C433        C  0.05474370  0.24805829  0.84682238    -0.11200
C434        C  0.05655015  0.24944580  0.87876671    -0.12800
C435        C  0.95243271  0.24390551  0.59871369    -0.11200
C436        C  0.94829131  0.24238199  0.63084636    -0.12800
C437        C  0.02631229  0.36225362  0.49446524    -0.14400
C438        C  0.00378140  0.37876658  0.50980972    -0.29600
H439        H  0.04609486  0.37431410  0.48004853     0.14600
H440        H  0.47881561  0.36933579  0.01575211     0.15200
C441        C  0.99039445  0.13628070  0.98842275    -0.14400
C442        C  0.00293507  0.11877001  0.01201974    -0.29600
H443        H  0.49543548  0.12773672  0.95000809     0.14600
H444        H  0.01308893  0.12930910  0.53244099     0.15200
N445        N  0.98942961  0.71581355  0.02620289    -0.34600
N446        N  0.53882340  0.72146689  0.44957689    -0.55100
N447        N  0.54216830  0.78898825  0.45131130    -0.34600
N448        N  0.99090660  0.78292368  0.02749279    -0.55100
C449        C  0.48072233  0.68812623  0.01250643     0.29000
C450        C  0.96642689  0.72041359  0.05156726     0.29000
C451        C  0.55166771  0.78363158  0.41666951     0.29000
C452        C  0.01754519  0.81228509  0.46261540     0.29000
C453        C  0.53838181  0.69086719  0.45551901     0.37600
C454        C  0.55893412  0.72748639  0.42090166     0.37600
C455        C  0.97838954  0.77645836  0.06093914     0.37600
C456        C  0.00212021  0.81267578  0.02824801     0.37600
C457        C  0.45420292  0.67450406  0.03032487    -0.19900
C458        C  0.94918383  0.69281478  0.05863697    -0.19900
C459        C  0.54984084  0.81013369  0.39674880    -0.19900
C460        C  0.02225608  0.82547461  0.42892666    -0.19900
C461        C  0.55859298  0.67738174  0.43066597    -0.20900
C462        C  0.57144215  0.70057250  0.40853065    -0.20900
C463        C  0.98160103  0.80220424  0.08304249    -0.20900
C464        C  0.99698177  0.82508749  0.06237885    -0.20900
C465        C  0.51785024  0.67465318  0.48085651    -0.16300
C466        C  0.96298951  0.74798876  0.07119585    -0.16300
C467        C  0.01431031  0.82918457  0.99752589    -0.16300
C468        C  0.56225189  0.75571741  0.40251705    -0.16300
H469        H  0.44528301  0.65069557  0.02862274     0.16600
H470        H  0.92964600  0.68882085  0.07805552     0.16600
H471        H  0.55590440  0.81345255  0.36839333     0.16600
H472        H  0.01739639  0.84845559  0.42134416     0.16600
H473        H  0.56275638  0.65322208  0.42789318     0.14900
H474        H  0.58733970  0.69782327  0.38522466     0.14900
H475        H  0.97380793  0.80425651  0.11112360     0.14900
H476        H  0.00334993  0.84826486  0.07140363     0.14900
H477        H  0.00797598  0.73145634  0.01911792     0.28200
H478        H  0.54360773  0.77434289  0.47284225     0.28200
N479        N  0.00447141  0.71022474  0.27500097    -0.34600
N480        N  0.01077992  0.77754813  0.27308708    -0.55100
N481        N  0.96736627  0.77562941  0.21864211    -0.34600
N482        N  0.95830263  0.70832991  0.22189967    -0.55100
C483        C  0.01839770  0.71736826  0.30563226     0.29000
C484        C  0.99090126  0.68135333  0.27887075     0.29000
C485        C  0.97020050  0.80645805  0.22429288     0.29000
C486        C  0.94619024  0.76996532  0.19422036     0.29000
C487        C  0.03381395  0.77268299  0.29421562     0.37600
C488        C  0.01335901  0.80781640  0.26508434     0.37600
C489        C  0.96321263  0.67804359  0.22314537     0.37600
C490        C  0.94727997  0.71288421  0.18953574     0.37600
C491        C  0.01348488  0.69279979  0.32925069    -0.19900
C492        C  0.99592077  0.67019842  0.31245168    -0.19900
C493        C  0.94971790  0.82044384  0.20389989    -0.19900
C494        C  0.93482512  0.79740575  0.18457889    -0.19900
C495        C  0.05110303  0.80012666  0.30005491    -0.20900
C496        C  0.03808826  0.82243801  0.28159400    -0.20900
C497        C  0.95377964  0.66304792  0.19234221    -0.20900
C498        C  0.94385472  0.68517566  0.17094332    -0.20900
C499        C  0.03641952  0.74492374  0.31228057    -0.16300
C500        C  0.97662538  0.66396694  0.25149720    -0.16300
C501        C  0.94152131  0.74180573  0.17574710    -0.16300
C502        C  0.99311836  0.82250887  0.24396000    -0.16300
H503        H  0.02174410  0.69119634  0.35582209     0.16600
H504        H  0.98810090  0.64789946  0.32353613     0.16600
H505        H  0.94706266  0.84485383  0.20155368     0.16600
H506        H  0.91862346  0.80057012  0.16439855     0.16600
H507        H  0.07052530  0.80380272  0.31664920     0.14900
H508        H  0.04574937  0.84665654  0.28074700     0.14900
H509        H  0.95498745  0.63894583  0.18530898     0.14900
H510        H  0.93559190  0.68139022  0.14443148     0.14900
H511        H  0.00730776  0.72276879  0.25129776     0.28200
H512        H  0.98231422  0.75978904  0.22602145     0.28200
O513        O  0.49125788  0.52575764  0.41801732    -0.76500
C514        C  0.41987673  0.50003340  0.00912819     0.84600
O515        O  0.02714738  0.57080248  0.03445079    -0.77600
O516        O  0.48389997  0.98274000  0.09286438    -0.79100
O517        O  0.01035448  0.92677926  0.48537303    -0.78900
O518        O  0.01558147  0.98044384  0.41817921    -0.77500
Zn519      Zn  0.48336658  0.53335217  0.47300439     1.55700
O520        O  0.47757910  0.92999703  0.02687812    -0.78900
Cd521      Cd  0.02260079  0.97270988  0.47340051     1.59700
Cd522      Cd  0.03183527  0.52392005  0.04043233     1.59600
O523        O  0.06938629  0.98102947  0.48124518    -0.78900
O524        O  0.00299456  0.50089446  0.00784664    -1.89400
Cd525      Cd  0.47301721  0.97581409  0.03874196     1.59900
O526        O  0.07692289  0.51501059  0.02373555    -0.78800
O527        O  0.42718147  0.98373073  0.03432643    -0.77500
C528        C  0.01345100  0.58577947  0.01186194     0.85000
C529        C  0.00312254  0.49780570  0.40425118     0.84700
O530        O  0.43672418  0.53004816  0.48497021    -0.76400
C531        C  0.99422462  0.91324213  0.00916526     0.85500
O532        O  0.49947133  0.57663702  0.48463680    -0.76500
C533        C  0.08903944  0.49899516  0.99823089     0.85600
C534        C  0.00107980  0.49809633  0.11338475     0.86000
O535        O  0.02368284  0.51281429  0.09575275    -0.79000
O536        O  0.48528213  0.51538482  0.16863417    -0.76500
C537        C  0.41711144  0.50068544  0.26409413     0.84600
O538        O  0.01944707  0.56867601  0.27889855    -0.77600
O539        O  0.47602433  0.98568150  0.34329322    -0.79100
O540        O  0.00706560  0.92131637  0.23639218    -0.78900
O541        O  0.01430274  0.97324183  0.16756651    -0.77500
Zn542      Zn  0.47786109  0.52473227  0.22367903     1.55700
O543        O  0.47279910  0.93028688  0.27724028    -0.78900
Cd544      Cd  0.02229075  0.96616866  0.22247865     1.59700
Cd545      Cd  0.02708348  0.52345804  0.28931069     1.59600
O546        O  0.07005531  0.97131952  0.22944817    -0.78900
O547        O  0.00007770  0.49613646  0.25838751    -1.89400
Cd548      Cd  0.46886614  0.97709746  0.28758461     1.59900
O549        O  0.07332332  0.51695603  0.27575226    -0.78800
O550        O  0.42410366  0.98666695  0.27594155    -0.77500
C551        C  0.00055365  0.58097813  0.25977943     0.85000
C552        C  0.00080902  0.49665990  0.15363470     0.84700
O553        O  0.43252442  0.51712332  0.23999741    -0.76400
C554        C  0.98798835  0.90937235  0.26086678     0.85500
O555        O  0.48877291  0.57027931  0.23179204    -0.76500
C556        C  0.08713703  0.50163598  0.25087802     0.85600
C557        C  0.99652808  0.99651381  0.36261539     0.86000
O558        O  0.01920337  0.51665581  0.34532390    -0.79000
N559        N  0.28897773  0.49684757  0.03533922    -0.34600
N560        N  0.29267478  0.56315818  0.47622621    -0.55100
N561        N  0.22518647  0.55484939  0.47908315    -0.34600
N562        N  0.22137506  0.49411805  0.04189590    -0.55100
C563        C  0.31846058  0.50951582  0.03183016     0.29000
C564        C  0.28254581  0.49035416  0.07053728     0.29000
C565        C  0.23090509  0.57914208  0.45696236     0.29000
C566        C  0.19468748  0.55324649  0.48979393     0.29000
C567        C  0.32275611  0.55672845  0.47377475     0.37600
C568        C  0.28749173  0.57603642  0.44466701     0.37600
C569        C  0.22597842  0.47691206  0.07056882     0.37600
C570        C  0.19051805  0.49278627  0.03889671     0.37600
C571        C  0.33067414  0.51142604  0.06518776    -0.19900
C572        C  0.30811492  0.49914033  0.08953681    -0.19900
C573        C  0.20382761  0.59346460  0.45350125    -0.19900
C574        C  0.18100709  0.57741169  0.47473243    -0.19900
C575        C  0.33708214  0.56666008  0.44125992    -0.20900
C576        C  0.31466054  0.57876965  0.42271241    -0.20900
C577        C  0.19786674  0.46460937  0.08602861    -0.20900
C578        C  0.17536557  0.47475798  0.06597978    -0.20900
C579        C  0.33515458  0.51742547  0.99889410    -0.16300
C580        C  0.25460419  0.47589384  0.08581232    -0.16300
C581        C  0.17582236  0.50881445  0.01307332    -0.16300
C582        C  0.25847281  0.58480974  0.43522410    -0.16300
H583        H  0.35349151  0.52068817  0.07141160     0.16600
H584        H  0.31018752  0.49743723  0.11809279     0.16600
H585        H  0.20068036  0.61268365  0.43632897     0.19600
H586        H  0.15677451  0.58191994  0.47701866     0.16600
H587        H  0.36086573  0.56453955  0.43142614     0.14900
H588        H  0.31797672  0.58826638  0.39602783     0.14900
H589        H  0.19391558  0.45071855  0.11000115     0.14900
H590        H  0.15069098  0.46976663  0.07107311     0.14900
H591        H  0.27524496  0.48981658  0.01452612     0.28200
H592        H  0.24036617  0.53782828  0.48150209     0.28200
N593        N  0.28710874  0.54200983  0.29126896    -0.34600
N594        N  0.21891101  0.53693756  0.29622835    -0.55100
N595        N  0.22048112  0.49469891  0.23647568    -0.34600
N596        N  0.28847557  0.49817443  0.23299536    -0.55100
C597        C  0.28135534  0.56541572  0.31439644     0.29000
C598        C  0.31796214  0.54405229  0.28209957     0.29000
C599        C  0.18993729  0.49061737  0.24693904     0.29000
C600        C  0.22662254  0.47307649  0.21117359     0.29000
C601        C  0.22345577  0.55767968  0.32292742     0.37600
C602        C  0.18798424  0.53095921  0.29530246     0.37600
C603        C  0.31935807  0.50327269  0.23458634     0.37600
C604        C  0.28409623  0.48042345  0.20367256     0.37600
C605        C  0.30883169  0.58254662  0.31994505    -0.19900
C606        C  0.33192932  0.56897568  0.29978669    -0.19900
C607        C  0.17697800  0.46546866  0.22844293    -0.19900
C608        C  0.19995160  0.45496696  0.20525736    -0.19900
C609        C  0.19523511  0.56504486  0.33916101    -0.20900
C610        C  0.17279800  0.54846485  0.32143856    -0.20900
C611        C  0.33465951  0.48798436  0.20655712    -0.20900
C612        C  0.31227030  0.47362164  0.18687413    -0.20900
C613        C  0.25251143  0.57070918  0.33256858    -0.16300
C614        C  0.33403056  0.52376581  0.25878922    -0.16300
C615        C  0.25512648  0.47048183  0.19146142    -0.16300
C616        C  0.17328521  0.50945204  0.27186316    -0.16300
H617        H  0.31187168  0.60291930  0.33662413     0.16600
H618        H  0.35620513  0.57677718  0.29815824     0.16600
H619        H  0.15340023  0.45552904  0.23112234     0.16600
H620        H  0.19748758  0.43589493  0.18649043     0.16600
H621        H  0.19119336  0.58116850  0.36105074     0.14900
H622        H  0.14816349  0.54934439  0.32741887     0.14900
H623        H  0.35933509  0.48811243  0.20005183     0.14900
H624        H  0.31624689  0.45960303  0.16303957     0.14900
H625        H  0.27144903  0.52378507  0.28562381     0.28200
H626        H  0.23557837  0.51333995  0.24242140     0.28200
C627        C  0.25336455  0.58720119  0.36642165    -0.11200
C628        C  0.25534590  0.59189981  0.39806009    -0.12800
C629        C  0.25421417  0.46213878  0.15408420    -0.11200
C630        C  0.25430210  0.46463114  0.12205048    -0.12800
C631        C  0.12122449  0.50424890  0.24677622    -0.14400
C632        C  0.13862923  0.50577441  0.27530790    -0.29600
H633        H  0.13214943  0.50428581  0.21968086     0.14600
H634        H  0.12430994  0.94581135  0.22039223     0.15200
C635        C  0.38319271  0.50153896  0.26820969    -0.14400
C636        C  0.36839002  0.52552339  0.25747658    -0.29600
H637        H  0.37489786  0.00584121  0.21778864     0.14600
H638        H  0.38131169  0.54619021  0.24706712     0.15200
C639        C  0.14170774  0.51004963  0.01805964    -0.14400
C640        C  0.12298803  0.49901202  0.99300650    -0.29600
H641        H  0.13338505  0.54377570  0.53108632     0.14600
H642        H  0.12996139  0.98252756  0.98766312     0.15200
C643        C  0.38582019  0.49862965  0.01109546    -0.14400
C644        C  0.36968443  0.51987313  0.99652108    -0.29600
H645        H  0.36779169  0.98959550  0.03948618     0.14600
H646        H  0.38566571  0.56037153  0.48754996     0.15200
C647        C  0.99748644  0.85646249  0.24017779    -0.14400
C648        C  0.98393288  0.87547126  0.26408209    -0.29600
H649        H  0.01168018  0.86558337  0.21707250     0.14600
H650        H  0.46671657  0.87023746  0.27397014     0.15200
C651        C  0.97600887  0.62964235  0.25181540    -0.14400
C652        C  0.00050079  0.61475781  0.26041052    -0.29600
H653        H  0.46477295  0.62351855  0.23499277     0.14600
H654        H  0.02116815  0.62770023  0.26869116     0.15200
C655        C  0.05279770  0.74653195  0.34452639    -0.11200
C656        C  0.05695070  0.74813257  0.37594004    -0.12800
C657        C  0.94624727  0.74598513  0.10599528    -0.11200
C658        C  0.93889986  0.74382554  0.13757816    -0.12800
C659        C  0.01608531  0.86337226  0.99757027    -0.14400
C660        C  0.99241453  0.87946008  0.01019541    -0.29600
H661        H  0.03665112  0.87539201  0.98467866     0.14600
H662        H  0.47786155  0.86954930  0.50926914     0.15200
C663        C  0.00028850  0.63505097  0.48836969    -0.14400
C664        C  0.01096744  0.61844801  0.51426307    -0.29600
H665        H  0.51004415  0.62917953  0.45449947     0.14600
H666        H  0.02670723  0.63084223  0.03662966     0.15200
N667        N  0.98180936  0.71403344  0.52184115    -0.34600
N668        N  0.52635189  0.71863893  0.96025154    -0.55100
N669        N  0.53288132  0.78627407  0.96210263    -0.34600
N670        N  0.98146511  0.78141660  0.52238018    -0.55100
C671        C  0.49681179  0.68945154  0.50469375     0.29000
C672        C  0.95745233  0.71856036  0.54529654     0.29000
C673        C  0.54228166  0.78066569  0.92744654     0.29000
C674        C  0.02431032  0.81436285  0.96549442     0.29000
C675        C  0.52450588  0.68797037  0.96604056     0.37600
C676        C  0.54663039  0.72402607  0.93164148     0.37600
C677        C  0.96864518  0.77454238  0.55555673     0.37600
C678        C  0.99302551  0.81104858  0.52396616     0.37600
C679        C  0.47106074  0.67487451  0.52308501    -0.19900
C680        C  0.94002725  0.69091014  0.55131660    -0.19900
C681        C  0.54288979  0.80767566  0.90789479    -0.19900
C682        C  0.02838217  0.82827826  0.93212505    -0.19900
C683        C  0.54437479  0.67379663  0.94137569    -0.20900
C684        C  0.55814361  0.69664956  0.91929456    -0.20900
C685        C  0.97184334  0.79995581  0.57820423    -0.20900
C686        C  0.98764494  0.82300182  0.55825704    -0.20900
C687        C  0.50184187  0.67242493  0.98960822    -0.16300
C688        C  0.95370519  0.74577068  0.56538328    -0.16300
C689        C  0.00652267  0.82756036  0.49387530    -0.16300
C690        C  0.55002347  0.75192650  0.91269219    -0.16300
H691        H  0.46294186  0.65082249  0.52156877     0.16600
H692        H  0.91971898  0.68686323  0.56961961     0.16600
H693        H  0.54952533  0.81091222  0.87964466     0.16600
H694        H  0.02398235  0.85162257  0.92549545     0.16600
H695        H  0.54718668  0.64939126  0.93815703     0.14900
H696        H  0.57368776  0.69338161  0.89579537     0.14900
H697        H  0.96403729  0.80164309  0.60627662     0.14900
H698        H  0.99448228  0.84582480  0.56803082     0.14900
H699        H  0.00068913  0.72978157  0.51665162     0.28200
H700        H  0.53244934  0.77110454  0.98347398     0.28200
N701        N  0.01376722  0.71194971  0.76890165    -0.34600
N702        N  0.01408403  0.77946577  0.76890922    -0.55100
N703        N  0.97428642  0.77551810  0.71069881    -0.34600
N704        N  0.97087817  0.70811559  0.71275849    -0.55100
C705        C  0.02444504  0.71976769  0.80118239     0.29000
C706        C  0.00201828  0.68230541  0.77126915     0.29000
C707        C  0.97431765  0.80613703  0.71761981     0.29000
C708        C  0.95253666  0.76844002  0.68722781     0.29000
C709        C  0.03603880  0.77596559  0.79205190     0.37600
C710        C  0.01516434  0.80981431  0.76136790     0.37600
C711        C  0.97825086  0.67850101  0.71319242     0.37600
C712        C  0.95898701  0.71209883  0.68081376     0.37600
C713        C  0.01936609  0.69487160  0.82428856    -0.19900
C714        C  0.00494691  0.67134185  0.80549362    -0.19900
C715        C  0.95216188  0.81864046  0.69834195    -0.19900
C716        C  0.93843630  0.79483613  0.67910852    -0.19900
C717        C  0.05100108  0.80429262  0.79963259    -0.20900
C718        C  0.03775137  0.82577498  0.78016723    -0.20900
C719        C  0.97051661  0.66343770  0.68176172    -0.20900
C720        C  0.95833776  0.68476134  0.66116827    -0.20900
C721        C  0.03967961  0.74832034  0.80992935    -0.16300
C722        C  0.99024301  0.66463160  0.74256513    -0.16300
C723        C  0.94824894  0.73988630  0.66931325    -0.16300
C724        C  0.99526193  0.82339340  0.73878111    -0.16300
H725        H  0.02518405  0.69377041  0.85195636     0.16600
H726        H  0.99741925  0.64876796  0.81597181     0.16600
H727        H  0.94696788  0.84255475  0.69748248     0.16600
H728        H  0.92078036  0.79686320  0.66035667     0.16600
H729        H  0.06913591  0.80903119  0.81782250     0.14900
H730        H  0.04383664  0.85033370  0.78016769     0.14900
H731        H  0.97350689  0.63967066  0.67429261     0.14900
H732        H  0.94997462  0.68058691  0.63474714     0.14900
H733        H  0.01729673  0.72501713  0.74557926     0.28200
H734        H  0.99093132  0.76106306  0.71728286     0.28200
O735        O  0.48942142  0.51918467  0.91794702    -0.76500
C736        C  0.41852824  0.51288604  0.50582373     0.84600
O737        O  0.02540148  0.57070892  0.53456951    -0.77600
O738        O  0.48678870  0.97764181  0.59240516    -0.79100
O739        O  0.01397436  0.92748728  0.98719123    -0.78900
O740        O  0.01586228  0.97946956  0.91943893    -0.77500
Zn741      Zn  0.48201291  0.52725896  0.97358100     1.55700
O742        O  0.48075272  0.92834356  0.52231366    -0.78900
Cd743      Cd  0.02421852  0.97340179  0.97429816     1.59700
Cd744      Cd  0.03308052  0.52466562  0.54091329     1.59600
O745        O  0.07087523  0.98355766  0.98183798    -0.78900
O746        O  0.00586461  0.49919126  0.50833864    -1.89400
Cd747      Cd  0.47429842  0.97304774  0.53832442     1.59900
O748        O  0.07896813  0.51964090  0.52394115    -0.78800
O749        O  0.42760558  0.97929858  0.53519028    -0.77500
C750        C  0.00980977  0.58448083  0.51278770     0.85000
C751        C  0.00338969  0.49753304  0.90377447     0.84700
O752        O  0.43583183  0.51842999  0.98738467    -0.76400
C753        C  0.99083306  0.91296366  0.50802737     0.85500
O754        O  0.49440356  0.57242697  0.98454301    -0.76500
C755        C  0.09250516  0.50474757  0.49841507     0.85600
C756        C  0.00517027  0.49662419  0.61420904     0.86000
O757        O  0.02571364  0.51405840  0.59657549    -0.79000
O758        O  0.48251311  0.51440615  0.66819291    -0.76500
C759        C  0.41616796  0.48676322  0.75975959     0.84600
O760        O  0.02607556  0.56790356  0.77760625    -0.77600
O761        O  0.47587661  0.98446219  0.84211961    -0.79100
O762        O  0.00738494  0.92240173  0.73601486    -0.78900
O763        O  0.01699961  0.97540994  0.66899702    -0.77500
Zn764      Zn  0.47462608  0.51996499  0.72360012     1.55700
O765        O  0.47340754  0.92721363  0.77853449    -0.78900
Cd766      Cd  0.02321991  0.96766479  0.72444482     1.59700
Cd767      Cd  0.02961355  0.52243131  0.78974011     1.59600
O768        O  0.07048937  0.97353807  0.73413444    -0.78900
O769        O  0.00307539  0.49505678  0.75855016    -1.89400
Cd770      Cd  0.46987579  0.97435122  0.78674882     1.59900
O771        O  0.07504326  0.51339615  0.77906895    -0.78800
O772        O  0.42570092  0.98420931  0.77338234    -0.77500
C773        C  0.00877535  0.58067109  0.75700167     0.85000
C774        C  0.00484141  0.49556021  0.65446041     0.84700
O775        O  0.43035792  0.50485681  0.73644969    -0.76400
C776        C  0.98802916  0.90951311  0.75958590     0.85500
O777        O  0.48046424  0.56592509  0.73574075    -0.76500
C778        C  0.08899063  0.49519983  0.75763951     0.85600
C779        C  0.99708807  0.99617196  0.86427818     0.86000
O780        O  0.01953398  0.51708652  0.84542096    -0.79000
N781        N  0.29073235  0.51198790  0.52562260    -0.34600
N782        N  0.28982951  0.52839776  0.96756180    -0.55100
N783        N  0.22207676  0.52174922  0.97255302    -0.34600
N784        N  0.22374296  0.50579164  0.52932836    -0.55100
C785        C  0.31914052  0.52617132  0.52884705     0.29000
C786        C  0.28357679  0.49530393  0.55569118     0.29000
C787        C  0.22815450  0.53905782  0.94282478     0.29000
C788        C  0.19213125  0.52463685  0.98384406     0.29000
C789        C  0.32015911  0.52349219  0.96780122     0.37600
C790        C  0.28454943  0.53320083  0.93293367     0.37600
C791        C  0.22881897  0.47998714  0.54684605     0.37600
C792        C  0.19318716  0.50476716  0.52472519     0.37600
C793        C  0.32972148  0.51925395  0.56180767    -0.19900
C794        C  0.30738036  0.49944340  0.57864998    -0.19900
C795        C  0.20185187  0.55296954  0.93474097    -0.19900
C796        C  0.17918715  0.54423987  0.96097086    -0.19900
C797        C  0.33437502  0.52599603  0.93343370    -0.20900
C798        C  0.31172161  0.53196953  0.91123493    -0.20900
C799        C  0.20127083  0.46223915  0.55349910    -0.20900
C800        C  0.17856241  0.47817726  0.53991825    -0.20900
C801        C  0.33699758  0.54155410  0.50056668    -0.16300
C802        C  0.25687328  0.47521536  0.56179919    -0.16300
C803        C  0.17837244  0.52847923  0.50885032    -0.16300
C804        C  0.25580295  0.53980255  0.92085124    -0.16300
H805        H  0.35171136  0.52686895  0.57208661     0.16600
H806        H  0.30868449  0.48907798  0.60466275     0.16600
H807        H  0.19927980  0.56768820  0.91213256     0.19600
H808        H  0.15571053  0.55116045  0.96255808     0.16600
H809        H  0.35839694  0.52330280  0.92509919     0.14900
H810        H  0.31494060  0.53516157  0.88245563     0.14900
H811        H  0.19777138  0.44058736  0.56761122     0.14900
H812        H  0.15413190  0.47107387  0.54146458     0.14900
H813        H  0.27886053  0.51030692  0.50226710     0.28200
H814        H  0.23653013  0.50588350  0.98141854     0.28200
N815        N  0.28538164  0.49946403  0.77086720    -0.34600
N816        N  0.21776522  0.49447052  0.77564002    -0.55100
N817        N  0.21834082  0.45654218  0.71143824    -0.34600
N818        N  0.28631878  0.46461653  0.70555793    -0.55100
C819        C  0.27905346  0.52145506  0.79562425     0.29000
C820        C  0.31564878  0.50414102  0.75987196     0.29000
C821        C  0.18809398  0.46233193  0.71577355     0.29000
C822        C  0.22441659  0.45031699  0.67614937     0.29000
C823        C  0.22308972  0.50671917  0.80822623     0.37600
C824        C  0.18794936  0.48311445  0.77776532     0.37600
C825        C  0.31710832  0.46668498  0.70924658     0.37600
C826        C  0.28165565  0.44750026  0.67579602     0.37600
C827        C  0.30556061  0.54033953  0.80049684    -0.19900
C828        C  0.32868803  0.52943019  0.77784780    -0.19900
C829        C  0.17454653  0.45849005  0.68333555    -0.19900
C830        C  0.19744107  0.45102148  0.65835774    -0.19900
C831        C  0.19655856  0.50320208  0.83117536    -0.20900
C832        C  0.17430906  0.48801855  0.81188074    -0.20900
C833        C  0.33209513  0.45035253  0.68192937    -0.20900
C834        C  0.30962697  0.43854008  0.66042368    -0.20900
C835        C  0.25103723  0.52257025  0.81676861    -0.16300
C836        C  0.33196813  0.48571514  0.73470466    -0.16300
C837        C  0.25351818  0.44442572  0.65917325    -0.16300
C838        C  0.17234683  0.47126585  0.74810816    -0.16300
H839        H  0.30806732  0.55964342  0.81892424     0.16600
H840        H  0.35241200  0.53901661  0.77502580     0.16600
H841        H  0.15081820  0.46154834  0.67791258     0.16600
H842        H  0.19447305  0.44681196  0.63018816     0.16600
H843        H  0.19346464  0.51099712  0.85879828     0.14900
H844        H  0.15067826  0.48177893  0.82167495     0.14900
H845        H  0.35671548  0.44838786  0.67697747     0.14900
H846        H  0.31347158  0.42576993  0.63559519     0.14900
H847        H  0.27096566  0.48009579  0.76549347     0.28200
H848        H  0.23343847  0.45529198  0.73170510     0.28200
C849        C  0.25207950  0.53736635  0.85140828    -0.11200
C850        C  0.25358659  0.54287277  0.88283750    -0.12800
C851        C  0.25559623  0.44350407  0.62053531    -0.11200
C852        C  0.25639698  0.45363543  0.59073143    -0.12800
C853        C  0.12263295  0.49500910  0.75904516    -0.14400
C854        C  0.13804302  0.47036115  0.74903482    -0.29600
H855        H  0.13498406  0.51552989  0.76926703     0.14600
H856        H  0.12638528  0.95488560  0.71844274     0.15200
C857        C  0.38215923  0.48263132  0.76101885    -0.14400
C858        C  0.36629246  0.48892009  0.73264372    -0.29600
H859        H  0.37789068  0.00177893  0.71321380     0.14600
H860        H  0.37851270  0.49572783  0.70724661     0.15200
C861        C  0.14408860  0.52752870  0.51263298    -0.14400
C862        C  0.12662930  0.50740647  0.49363715    -0.29600
H863        H  0.13193591  0.51824722  0.04374489     0.14600
H864        H  0.12863064  0.97841316  0.48642193     0.15200
C865        C  0.38487098  0.51497295  0.50657560    -0.14400
C866        C  0.37139608  0.54046109  0.49784383    -0.29600
H867        H  0.36744859  0.98319716  0.54085044     0.14600
H868        H  0.38188024  0.53853193  0.98104089     0.15200
C869        C  0.99755727  0.85748695  0.73574451    -0.14400
C870        C  0.98380250  0.87548276  0.76068509    -0.29600
H871        H  0.01135813  0.86762620  0.71291331     0.14600
H872        H  0.46962966  0.86709124  0.78005111     0.15200
C873        C  0.98843094  0.63032188  0.74374074    -0.14400
C874        C  0.01106958  0.61452504  0.75559250    -0.29600
H875        H  0.45758558  0.61920945  0.73099029     0.14600
H876        H  0.03155613  0.62673002  0.76540883     0.15200
C877        C  0.05439586  0.75026730  0.84335719    -0.11200
C878        C  0.05818750  0.75100555  0.87490704    -0.12800
C879        C  0.93984626  0.74259390  0.60139153    -0.11200
C880        C  0.93808528  0.74059825  0.63349528    -0.12800
C881        C  0.00957469  0.86186150  0.49400031    -0.14400
C882        C  0.98731215  0.87910916  0.50816737    -0.29600
H883        H  0.03024963  0.87313382  0.48045532     0.14600
H884        H  0.47123648  0.87034814  0.01696012     0.15200
C885        C  0.00453048  0.63703365  0.98917335    -0.14400
C886        C  0.01566971  0.61972009  0.01410714    -0.29600
H887        H  0.47936611  0.62750598  0.97320406     0.14600
H888        H  0.02143617  0.63024196  0.53676042     0.15200
N889        N  0.48737286  0.21867347  0.01160101    -0.34600
N890        N  0.03333675  0.21503868  0.45467573    -0.55100
N891        N  0.04267482  0.28279931  0.46023770    -0.34600
N892        N  0.49346819  0.28611808  0.01501247    -0.55100
C893        C  0.97640535  0.18613046  0.01696986     0.29000
C894        C  0.46358254  0.22469181  0.03527064     0.29000
C895        C  0.05296903  0.27746321  0.42582773     0.29000
C896        C  0.51269107  0.31633687  0.46044757     0.29000
C897        C  0.02921823  0.18413246  0.45834880     0.37600
C898        C  0.05600092  0.22047895  0.42852807     0.37600
C899        C  0.47982526  0.27930086  0.04783556     0.37600
C900        C  0.50730849  0.31475489  0.01798081     0.37600
C901        C  0.95144098  0.17261282  0.03772822    -0.19900
C902        C  0.44361413  0.19853290  0.03992408    -0.19900
C903        C  0.05294475  0.30438001  0.40617338    -0.19900
C904        C  0.51989586  0.33062179  0.42763085    -0.19900
C905        C  0.04963860  0.16975498  0.43457749    -0.20900
C906        C  0.06658883  0.19280753  0.41560599    -0.20900
C907        C  0.48490125  0.30373331  0.07149007    -0.20900
C908        C  0.50255809  0.32609918  0.05261406    -0.20900
C909        C  0.00578469  0.16886504  0.48110685    -0.16300
C910        C  0.46238193  0.25155802  0.05653961    -0.16300
C911        C  0.52219332  0.33153111  0.98896527    -0.16300
C912        C  0.06262423  0.24916366  0.41159943    -0.16300
H913        H  0.94200683  0.14893789  0.03661424     0.16600
H914        H  0.42301063  0.19579870  0.05799369     0.16600
H915        H  0.05983891  0.30773644  0.37796588     0.16600
H916        H  0.51684619  0.35425267  0.42081207     0.16600
H917        H  0.05138473  0.14526930  0.43039927     0.14900
H918        H  0.08362274  0.18956637  0.39352745     0.14900
H919        H  0.47706222  0.30526460  0.09951224     0.14900
H920        H  0.51100986  0.34815949  0.06319938     0.14900
H921        H  0.50761192  0.23272415  0.00733554     0.28200
H922        H  0.04263652  0.26757510  0.48155366     0.28200
N923        N  0.51933187  0.21698636  0.26275496    -0.34600
N924        N  0.52399430  0.28451509  0.26089397    -0.55100
N925        N  0.48596474  0.28212508  0.20111497    -0.34600
N926        N  0.47888464  0.21477292  0.20436835    -0.55100
C927        C  0.52774518  0.22475429  0.29605126     0.29000
C928        C  0.50575317  0.18798982  0.26478790     0.29000
C929        C  0.48730791  0.31284065  0.20775863     0.29000
C930        C  0.46400020  0.27584680  0.17764156     0.29000
C931        C  0.54355066  0.28021423  0.28657231     0.37600
C932        C  0.52661757  0.31488895  0.25340388     0.37600
C933        C  0.48544189  0.18493342  0.20504541     0.37600
C934        C  0.46828675  0.21920175  0.17184828     0.37600
C935        C  0.51921507  0.20050858  0.31937787    -0.19900
C936        C  0.50515271  0.17742026  0.29968644    -0.19900
C937        C  0.46593719  0.32623952  0.18811393    -0.19900
C938        C  0.45118523  0.30287483  0.16917214    -0.19900
C939        C  0.55885707  0.30804230  0.29551640    -0.20900
C940        C  0.54818394  0.33004638  0.27436559    -0.20900
C941        C  0.47873083  0.17024112  0.17305893    -0.20900
C942        C  0.46780469  0.19198540  0.15196201    -0.20900
C943        C  0.54380550  0.25263246  0.30576163    -0.16300
C944        C  0.49519470  0.17055642  0.23535513    -0.16300
C945        C  0.45830669  0.24723305  0.16020158    -0.16300
C946        C  0.50812638  0.32928699  0.22984886    -0.16300
H947        H  0.52240691  0.19955271  0.34778988     0.16600
H948        H  0.49538844  0.15545955  0.31004256     0.16600
H949        H  0.46173334  0.35040817  0.18705439     0.16600
H950        H  0.43366773  0.30557655  0.15042259     0.16600
H951        H  0.57510537  0.31219749  0.31606355     0.14900
H952        H  0.55485212  0.35448200  0.27513034     0.14900
H953        H  0.48141559  0.14641309  0.16564124     0.14900
H954        H  0.46037721  0.18816058  0.12505348     0.14900
H955        H  0.52528926  0.22948802  0.23934374     0.28200
H956        H  0.50171535  0.26688993  0.20825544     0.28200
O957        O  0.97847332  0.01305982  0.42235244    -0.76500
C958        C  0.91323274  0.99774765  0.01710039     0.84600
O959        O  0.51843768  0.07390637  0.02480609    -0.77600
O960        O  0.97877875  0.48467864  0.09707965    -0.79100
O961        O  0.51024801  0.43049004  0.48208067    -0.78900
O962        O  0.51558103  0.48251267  0.41473678    -0.77500
Zn963      Zn  0.97346476  0.02314185  0.47787068     1.55700
O964        O  0.97562996  0.43010773  0.03135487    -0.78900
Cd965      Cd  0.52441380  0.47575748  0.46889164     1.59700
Cd966      Cd  0.52725214  0.02849026  0.03283380     1.59600
O967        O  0.57182952  0.48190369  0.47356741    -0.78900
O968        O  0.49937055  0.00179513  0.00233515    -1.89400
Cd969      Cd  0.97214406  0.47701342  0.04138451     1.59900
O970        O  0.57292004  0.02261538  0.01577825    -0.78800
O971        O  0.92852196  0.48879732  0.02961528    -0.77500
C972        C  0.50239132  0.08717332  0.00305264     0.85000
C973        C  0.49796460  0.00140313  0.39914260     0.84700
O974        O  0.92781786  0.01591548  0.49544835    -0.76400
C975        C  0.50110494  0.41525571  0.00393842     0.85500
O976        O  0.98674762  0.06875227  0.48578615    -0.76500
C977        C  0.58584184  0.00416526  0.99355584     0.85600
C978        C  0.50386457  0.00070742  0.10781454     0.86000
O979        O  0.52213605  0.01955415  0.08904310    -0.79000
O980        O  0.99216750  0.01769637  0.17132057    -0.76500
C981        C  0.91500208  0.99802630  0.25088639     0.84600
O982        O  0.52467331  0.07181675  0.27406057    -0.77600
O983        O  0.98283022  0.47796975  0.34920238    -0.79100
O984        O  0.51631711  0.42869997  0.23076127    -0.78900
O985        O  0.52296195  0.48328761  0.16505537    -0.77500
Zn986      Zn  0.98025986  0.02237715  0.22505851     1.55700
O987        O  0.98173858  0.42374106  0.28236926    -0.78900
Cd988      Cd  0.52823333  0.47496646  0.22026567     1.59700
Cd989      Cd  0.52720019  0.02565207  0.28488024     1.59600
O990        O  0.57446651  0.48325442  0.23101274    -0.78900
O991        O  0.49956937  0.00059746  0.25276734    -1.89400
Cd992      Cd  0.97360583  0.46946071  0.29423191     1.59900
O993        O  0.57199238  0.01495743  0.27357702    -0.78800
O994        O  0.92715849  0.47566478  0.28707219    -0.77500
C995        C  0.50863419  0.08567951  0.25287440     0.85000
C996        C  0.50463600  0.00047853  0.14796087     0.84700
O997        O  0.93428659  0.01321049  0.22947731    -0.76400
C998        C  0.49849306  0.41424652  0.25458024     0.85500
O999        O  0.99009417  0.06641681  0.23949076    -0.76500
C1000       C  0.58540333  0.99583946  0.25288999     0.85600
C1001       C  0.50248689  0.50375766  0.35946343     0.86000
O1002       O  0.51828239  0.01781239  0.34056802    -0.79000
N1003       N  0.78537073  0.02743945  0.03180771    -0.34600
N1004       N  0.77969076  0.00001188  0.47829476    -0.55100
N1005       N  0.71357088  0.00819284  0.48225982    -0.34600
N1006       N  0.71969531  0.03844878  0.03371519    -0.55100
C1007       C  0.81580587  0.02718931  0.02132866     0.29000
C1008       C  0.78269400  0.04837403  0.05859906     0.29000
C1009       C  0.71921982  0.99735391  0.44854344     0.29000
C1010       C  0.68754344  0.02342900  0.48225190     0.29000
C1011       C  0.80945421  0.99596734  0.48386396     0.37600
C1012       C  0.77080148  0.97836880  0.45423106     0.37600
C1013       C  0.72561590  0.04777588  0.06735667     0.37600
C1014       C  0.68857188  0.03505142  0.03310193     0.37600
C1015       C  0.83249246  0.04874005  0.04153706    -0.19900
C1016       C  0.81158102  0.06163601  0.06559591    -0.19900
C1017       C  0.69699714  0.00633183  0.42666096    -0.19900
C1018       C  0.67716338  0.02313174  0.44791402    -0.19900
C1019       C  0.81971828  0.97169809  0.46293285    -0.20900
C1020       C  0.79508090  0.96038419  0.44422916    -0.20900
C1021       C  0.69821209  0.05168527  0.08770888    -0.20900
C1022       C  0.67466492  0.04360751  0.06596356    -0.20900
C1023       C  0.82906829  0.00653045  0.99597428    -0.16300
C1024       C  0.75542081  0.05241994  0.07997749    -0.16300
C1025       C  0.67286575  0.02424772  0.00307712    -0.16300
C1026       C  0.74254900  0.97767193  0.43795227    -0.16300
H1027       H  0.85726599  0.05400448  0.03999846     0.16600
H1028       H  0.81695314  0.07849618  0.08626062     0.16600
H1029       H  0.69512535  0.00112410  0.39840916     0.19600
H1030       H  0.65689722  0.03324226  0.43931836     0.16600
H1031       H  0.84252270  0.96307551  0.46134256     0.14900
H1032       H  0.79527814  0.94173734  0.42473292     0.14900
H1033       H  0.69549039  0.05929497  0.11543277     0.14900
H1034       H  0.65020787  0.04332598  0.07385814     0.14900
H1035       H  0.76777189  0.01141405  0.02516309     0.28200
H1036       H  0.72426305  0.00172217  0.50486025     0.28200
N1037       N  0.77564781  0.97302951  0.29241646    -0.34600
N1038       N  0.70910629  0.96096095  0.28466220    -0.55100
N1039       N  0.71796782  0.99719552  0.22049581    -0.34600
N1040       N  0.78484874  0.00607437  0.22693388    -0.55100
C1041       C  0.76663959  0.95250652  0.31848499     0.29000
C1042       C  0.80670318  0.97255604  0.28662117     0.29000
C1043       C  0.68939931  0.98335404  0.21690035     0.29000
C1044       C  0.72834004  0.00864686  0.18808121     0.29000
C1045       C  0.71006677  0.95543521  0.32002412     0.37600
C1046       C  0.67929615  0.96500661  0.27918043     0.37600
C1047       C  0.81330796  0.01189535  0.23903603     0.37600
C1048       C  0.78128766  0.02785862  0.20251278     0.37600
C1049       C  0.79201423  0.93868325  0.32954557    -0.19900
C1050       C  0.81731572  0.95092458  0.30895707    -0.19900
C1051       C  0.68160590  0.98578023  0.18173218    -0.19900
C1052       C  0.70630410  0.00152887  0.16345806    -0.19900
C1053       C  0.68060437  0.95480254  0.33698082    -0.20900
C1054       C  0.66093851  0.96045966  0.31086706    -0.20900
C1055       C  0.82801810  0.03764576  0.22205169    -0.20900
C1056       C  0.80774697  0.04764816  0.19866122    -0.20900
C1057       C  0.73727805  0.95046231  0.33669438    -0.16300
C1058       C  0.82580501  0.99344666  0.26466586    -0.16300
C1059       C  0.75571401  0.02785464  0.18132221    -0.16300
C1060       C  0.66889961  0.97245484  0.24561370    -0.16300
H1061       H  0.79227704  0.92224114  0.35102628     0.16600
H1062       H  0.84095215  0.94535628  0.31130894     0.16600
H1063       H  0.66009365  0.97771559  0.17061072     0.16600
H1064       H  0.70767619  0.00731205  0.13532635     0.16600
H1065       H  0.67400122  0.95053190  0.36509938     0.14900
H1066       H  0.63616173  0.96169125  0.31497181     0.14900
H1067       H  0.85076550  0.04833073  0.22620376     0.14900
H1068       H  0.81203668  0.06706718  0.18071441     0.14900
H1069       H  0.76197519  0.98975511  0.28391234     0.28200
H1070       H  0.72790247  0.00264381  0.24453681     0.28200
C1071       C  0.73671536  0.95084134  0.37522433    -0.11200
C1072       C  0.73907787  0.95983348  0.40552274    -0.12800
C1073       C  0.75849932  0.04564670  0.14876459    -0.11200
C1074       C  0.75811734  0.05393645  0.11820761    -0.12800
C1075       C  0.61885057  0.99426941  0.25583858    -0.14400
C1076       C  0.63524445  0.97188980  0.24096860    -0.29600
H1077       H  0.63044171  0.01177872  0.27225143     0.14600
H1078       H  0.62612401  0.45727000  0.23289094     0.15200
C1079       C  0.88192679  0.99811028  0.24410421    -0.14400
C1080       C  0.85955136  0.99608919  0.27078123    -0.29600
H1081       H  0.86689866  0.48026397  0.28788771     0.14600
H1082       H  0.86620919  0.99412854  0.29816544     0.15200
C1083       C  0.63865042  0.02631990  0.00390266    -0.14400
C1084       C  0.61975106  0.00378633  0.99051660    -0.29600
H1085       H  0.62554951  0.05267705  0.52953679     0.14600
H1086       H  0.63637674  0.48613370  0.97033566     0.15200
C1087       C  0.87922532  0.99767146  0.01992181    -0.14400
C1088       C  0.86327026  0.00568879  0.99233723    -0.29600
H1089       H  0.87098715  0.49015673  0.01750225     0.14600
H1090       H  0.87284197  0.02075466  0.47546025     0.15200
C1091       C  0.51009391  0.36346071  0.22855257    -0.14400
C1092       C  0.49694125  0.38022998  0.25515991    -0.29600
H1093       H  0.52131949  0.37458912  0.20470718     0.14600
H1094       H  0.98057981  0.36432897  0.27942111     0.15200
C1095       C  0.49179776  0.13626223  0.23688230    -0.14400
C1096       C  0.51213260  0.11953854  0.25207505    -0.29600
H1097       H  0.96936880  0.11920421  0.23883877     0.14600
H1098       H  0.53191550  0.13091452  0.26431918     0.15200
C1099       C  0.55492648  0.25431338  0.34121888    -0.11200
C1100       C  0.55468047  0.25424162  0.37338237    -0.12800
C1101       C  0.44845132  0.24870671  0.09256350    -0.11200
C1102       C  0.44730506  0.24768769  0.12474004    -0.12800
C1103       C  0.52338748  0.36582553  0.98987893    -0.14400
C1104       C  0.49969622  0.38147860  0.00386655    -0.29600
H1105       H  0.54382988  0.37847534  0.97760434     0.14600
H1106       H  0.98342258  0.36704185  0.52340064     0.15200
C1107       C  0.48599000  0.13783840  0.47893785    -0.14400
C1108       C  0.49515781  0.12134163  0.50591760    -0.29600
H1109       H  0.99716972  0.12350386  0.45371288     0.14600
H1110       H  0.51022849  0.13256511  0.02909304     0.15200
N1111       N  0.47281376  0.21716471  0.51649817    -0.34600
N1112       N  0.02016298  0.21655296  0.96175955    -0.55100
N1113       N  0.02881466  0.28417322  0.96579165    -0.34600
N1114       N  0.47621907  0.28492330  0.52064335    -0.55100
C1115       C  0.98576821  0.18477826  0.50520123     0.29000
C1116       C  0.45169817  0.22176261  0.54394257     0.29000
C1117       C  0.03845095  0.27876327  0.93116809     0.29000
C1118       C  0.53591049  0.31681676  0.95856499     0.29000
C1119       C  0.01670356  0.18570896  0.96624812     0.37600
C1120       C  0.04134484  0.22176408  0.93394085     0.37600
C1121       C  0.46439751  0.27788355  0.55427479     0.37600
C1122       C  0.48697727  0.31491090  0.52166273     0.37600
C1123       C  0.95897907  0.17170499  0.52302350    -0.19900
C1124       C  0.43403257  0.19447908  0.55139676    -0.19900
C1125       C  0.03869779  0.30577288  0.91167141    -0.19900
C1126       C  0.54635782  0.33139501  0.92673168    -0.19900
C1127       C  0.03599064  0.17119016  0.94128190    -0.20900
C1128       C  0.05159279  0.19405280  0.92076176    -0.20900
C1129       C  0.46703558  0.30368829  0.57637479    -0.20900
C1130       C  0.48147265  0.32705866  0.55580707    -0.20900
C1131       C  0.99475152  0.17044505  0.99081640    -0.16300
C1132       C  0.45112203  0.24862191  0.56542776    -0.16300
C1133       C  0.50125388  0.33136870  0.49180132    -0.16300
C1134       C  0.04740428  0.25034357  0.91661365    -0.16300
H1135       H  0.94895843  0.14834781  0.52042602     0.16600
H1136       H  0.41592256  0.19050216  0.57261462     0.16600
H1137       H  0.04533880  0.30912113  0.88339785     0.16600
H1138       H  0.54535205  0.35540081  0.92006566     0.16600
H1139       H  0.03792257  0.14668529  0.93751801     0.14900
H1140       H  0.06767413  0.19063576  0.89779070     0.14900
H1141       H  0.45970115  0.30548124  0.60452792     0.14900
H1142       H  0.48779112  0.35009487  0.56529428     0.14900
H1143       H  0.49149765  0.23252335  0.50919077     0.28200
H1144       H  0.02905924  0.26896740  0.98703827     0.28200
N1145       N  0.52065018  0.21280622  0.76784536    -0.34600
N1146       N  0.52870821  0.28001742  0.76146531    -0.55100
N1147       N  0.48551297  0.27699715  0.70670706    -0.34600
N1148       N  0.47422282  0.21002483  0.71527946    -0.55100
C1149       C  0.53445547  0.22073943  0.79835688     0.29000
C1150       C  0.50755355  0.18379122  0.77234143     0.29000
C1151       C  0.48859367  0.30792114  0.71177914     0.29000
C1152       C  0.46115906  0.27082893  0.68653649     0.29000
C1153       C  0.55064855  0.27569731  0.78441043     0.37600
C1154       C  0.53255783  0.30981450  0.75124041     0.37600
C1155       C  0.47860239  0.17967611  0.71747892     0.37600
C1156       C  0.46091687  0.21363209  0.68405166     0.37600
C1157       C  0.53007310  0.19640024  0.82233872    -0.19900
C1158       C  0.51297591  0.17322416  0.80603189    -0.19900
C1159       C  0.46571814  0.32148567  0.69472629    -0.19900
C1160       C  0.44842763  0.29805564  0.67877664    -0.19900
C1161       C  0.56865353  0.30293666  0.78884882    -0.20900
C1162       C  0.55727495  0.32453800  0.76765634    -0.20900
C1163       C  0.46710357  0.16386256  0.68817466    -0.20900
C1164       C  0.45594010  0.18540065  0.66696023    -0.20900
C1165       C  0.55184264  0.24878325  0.80479529    -0.16300
C1166       C  0.49241121  0.16606317  0.74590500    -0.16300
C1167       C  0.45319766  0.24203595  0.67069468    -0.16300
C1168       C  0.51246476  0.32433666  0.72964468    -0.16300
H1169       H  0.53827889  0.19529464  0.84891102     0.16600
H1170       H  0.50540834  0.15110989  0.81776367     0.16600
H1171       H  0.46223509  0.34579217  0.69322907     0.16600
H1172       H  0.42914144  0.30075712  0.66250543     0.16600
H1173       H  0.58746971  0.30698787  0.80626118     0.14900
H1174       H  0.56568720  0.34850130  0.76536275     0.14900
H1175       H  0.46731207  0.13948547  0.68216308     0.14900
H1176       H  0.44566321  0.18083725  0.64163368     0.14900
H1177       H  0.52285150  0.22511529  0.74397900     0.28200
H1178       H  0.50152097  0.26138094  0.71204820     0.28200
O1179       O  0.98072709  0.01426243  0.92337663    -0.76500
C1180       C  0.91256049  0.00069815  0.52082000     0.84600
O1181       O  0.51250086  0.07538397  0.52704752    -0.77600
O1182       O  0.98495721  0.48001157  0.59788120    -0.79100
O1183       O  0.51980938  0.42976751  0.98119321    -0.78900
O1184       O  0.51981054  0.48025293  0.91396053    -0.77500
Zn1185     Zn  0.97429611  0.02370013  0.97824775     1.55700
O1186       O  0.98649105  0.42633689  0.53081683    -0.78900
Cd1187     Cd  0.52943876  0.47531905  0.96829853     1.59700
Cd1188     Cd  0.52351649  0.03075584  0.53544944     1.59600
O1189       O  0.57639486  0.48507553  0.97282950    -0.78900
O1190       O  0.49872517  0.00216689  0.50354974    -1.89400
Cd1191     Cd  0.97857864  0.47200161  0.54242985     1.59900
O1192       O  0.57029890  0.02778846  0.52186069    -0.78800
O1193       O  0.93310091  0.47837693  0.53348474    -0.77500
C1194       C  0.49587625  0.08743245  0.50494979     0.85000
C1195       C  0.49805916  0.99903369  0.89798422     0.84700
O1196       O  0.92883251  0.01365809  0.99267112    -0.76400
C1197       C  0.48938102  0.41808661  0.50421674     0.85500
O1198       O  0.98464767  0.06975917  0.98823820    -0.76500
C1199       C  0.58520446  0.01067040  0.49984019     0.85600
C1200       C  0.50306791  0.99855786  0.60841957     0.86000
O1201       O  0.51696835  0.02116148  0.59098356    -0.79000
O1202       O  0.98980712  0.01668574  0.67275684    -0.76500
C1203       C  0.91443089  0.99542676  0.75447165     0.84600
O1204       O  0.52871098  0.06720730  0.77459376    -0.77600
O1205       O  0.98619765  0.47582559  0.84841407    -0.79100
O1206       O  0.51935405  0.42536809  0.72661713    -0.78900
O1207       O  0.51940107  0.48161423  0.66212148    -0.77500
Zn1208     Zn  0.97861826  0.02147944  0.72694216     1.55700
O1209       O  0.98388320  0.42224004  0.78234436    -0.78900
Cd1210     Cd  0.52709314  0.47278547  0.71638305     1.59700
Cd1211     Cd  0.53070237  0.02048879  0.78382937     1.59600
O1212       O  0.57325990  0.48584531  0.72252248    -0.78900
O1213       O  0.50164882  0.99664804  0.75234314    -1.89400
Cd1214     Cd  0.97667580  0.46808093  0.79382326     1.59900
O1215       O  0.57514549  0.00846301  0.77052416    -0.78800
O1216       O  0.93054926  0.47606449  0.78783983    -0.77500
C1217       C  0.51113837  0.08162822  0.75576036     0.85000
C1218       C  0.50464067  0.99749749  0.64832809     0.84700
O1219       O  0.93308256  0.01061603  0.73239810    -0.76400
C1220       C  0.50363387  0.41031748  0.75180599     0.85500
O1221       O  0.98699098  0.06578737  0.74124401    -0.76500
C1222       C  0.58738209  0.98923896  0.74881149     0.85600
C1223       C  0.50305484  0.49878259  0.85872941     0.86000
O1224       O  0.52083880  0.01260859  0.83947731    -0.79000
N1225       N  0.78417151  0.03595508  0.54260083    -0.34600
N1226       N  0.78092342  0.98871811  0.96951481    -0.55100
N1227       N  0.71464194  0.99580606  0.97389670    -0.34600
N1228       N  0.71817172  0.04768682  0.54458034    -0.55100
C1229       C  0.81473312  0.03465477  0.53306520     0.29000
C1230       C  0.78156055  0.05558424  0.57070745     0.29000
C1231       C  0.71976181  0.98286302  0.94109337     0.29000
C1232       C  0.68864831  0.01105877  0.97290074     0.29000
C1233       C  0.81142664  0.98710964  0.97327887     0.37600
C1234       C  0.77269694  0.96666634  0.94557973     0.37600
C1235       C  0.72414053  0.05600999  0.57856036     0.37600
C1236       C  0.68698462  0.04430746  0.54385406     0.37600
C1237       C  0.83168871  0.05410892  0.55536966    -0.19900
C1238       C  0.81072709  0.06683270  0.57961261    -0.19900
C1239       C  0.69716877  0.99034725  0.91888323    -0.19900
C1240       C  0.67782114  0.00858122  0.93881280    -0.19900
C1241       C  0.82286623  0.96416311  0.95105831    -0.20900
C1242       C  0.79822641  0.95104702  0.93361833    -0.20900
C1243       C  0.69665108  0.05943103  0.59900491    -0.20900
C1244       C  0.67308118  0.05191646  0.57703362    -0.20900
C1245       C  0.82762616  0.01459303  0.50671481    -0.16300
C1246       C  0.75395811  0.05967950  0.59167125    -0.16300
C1247       C  0.67127685  0.03432231  0.51340894    -0.16300
C1248       C  0.74354026  0.96346129  0.93114297    -0.16300
H1249       H  0.85658792  0.05782642  0.55523721     0.16600
H1250       H  0.81624739  0.08208332  0.60179298     0.16600
H1251       H  0.69494871  0.98354071  0.89111291     0.19600
H1252       H  0.65764803  0.01834565  0.92947485     0.16600
H1253       H  0.84646049  0.95761647  0.94768714     0.14900
H1254       H  0.79921269  0.93287855  0.91355212     0.14900
H1255       H  0.69387915  0.06611737  0.62704620     0.14900
H1256       H  0.64862004  0.05143621  0.58494863     0.14900
H1257       H  0.76614057  0.02130793  0.53422033     0.28200
H1258       H  0.72585154  0.99100264  0.99675724     0.28200
N1259       N  0.77590587  0.96036834  0.79034187    -0.34600
N1260       N  0.70988420  0.94636176  0.77997429    -0.55100
N1261       N  0.71776442  0.99088944  0.72251240    -0.34600
N1262       N  0.78433644  0.00093477  0.73054899    -0.55100
C1263       C  0.76748124  0.93780394  0.81414407     0.29000
C1264       C  0.80713131  0.96234143  0.78592658     0.29000
C1265       C  0.68959739  0.97705199  0.71675760     0.29000
C1266       C  0.72767010  0.00676664  0.69255143     0.29000
C1267       C  0.71062835  0.93785583  0.81457352     0.37600
C1268       C  0.67990623  0.95001300  0.77474364     0.37600
C1269       C  0.81261914  0.00600891  0.74335259     0.37600
C1270       C  0.78038457  0.02490784  0.70920855     0.37600
C1271       C  0.79348235  0.92505218  0.82516480    -0.19900
C1272       C  0.81856371  0.94012389  0.80680983    -0.19900
C1273       C  0.68157994  0.98396980  0.68267254    -0.19900
C1274       C  0.70570928  0.00251863  0.66728388    -0.19900
C1275       C  0.68094025  0.93471630  0.83091787    -0.20900
C1276       C  0.66134668  0.94201113  0.80540173    -0.20900
C1277       C  0.82686853  0.03336724  0.72968576    -0.20900
C1278       C  0.80650799  0.04521052  0.70777751    -0.20900
C1279       C  0.73790228  0.93346820  0.83153683    -0.16300
C1280       C  0.82543263  0.98584206  0.76693241    -0.16300
C1281       C  0.75458247  0.02706562  0.68877418    -0.16300
C1282       C  0.66944296  0.96177293  0.74309158    -0.16300
H1283       H  0.79423848  0.90762964  0.84546870     0.16600
H1284       H  0.84250542  0.93611326  0.80996477     0.16600
H1285       H  0.66026956  0.97692148  0.67048979     0.16600
H1286       H  0.70677394  0.01191743  0.64059629     0.16600
H1287       H  0.67420118  0.92818107  0.85841326     0.14900
H1288       H  0.63649335  0.94267444  0.80943677     0.14900
H1289       H  0.84932547  0.04402196  0.73522358     0.14900
H1290       H  0.81045084  0.06630402  0.69255974     0.14900
H1291       H  0.76131173  0.97674983  0.78298360     0.28200
H1292       H  0.72758525  0.99322954  0.74716151     0.28200
C1293       C  0.73700232  0.93385758  0.87014380    -0.11200
C1294       C  0.73964110  0.94389004  0.90002305    -0.12800
C1295       C  0.75680350  0.04851812  0.65937715    -0.11200
C1296       C  0.75620093  0.05935167  0.62998832    -0.12800
C1297       C  0.62106965  0.98715615  0.74937518    -0.14400
C1298       C  0.63565622  0.96196892  0.73929351    -0.29600
H1299       H  0.63433613  0.00657240  0.76084951     0.14600
H1300       H  0.62741497  0.50958760  0.79590864     0.15200
C1301       C  0.88135679  0.99407244  0.74774459    -0.14400
C1302       C  0.85889966  0.98958811  0.77401362    -0.29600
H1303       H  0.87061417  0.47774526  0.78894285     0.14600
H1304       H  0.86530157  0.98658394  0.80133415     0.15200
C1305       C  0.63675763  0.03456206  0.51449083    -0.14400
C1306       C  0.61924832  0.01199528  0.49886148    -0.29600
H1307       H  0.62867279  0.04576966  0.01770418     0.14600
H1308       H  0.63201880  0.48495724  0.46504276     0.15200
C1309       C  0.87866530  0.00245045  0.52635439    -0.14400
C1310       C  0.86182142  0.01375510  0.50140785    -0.29600
H1311       H  0.87422038  0.47573560  0.53008517     0.14600
H1312       H  0.87517283  0.01067578  0.96623808     0.15200
C1313       C  0.51542191  0.35860250  0.72677591    -0.14400
C1314       C  0.50365661  0.37628839  0.75342935    -0.29600
H1315       H  0.52523713  0.36889648  0.70177801     0.14600
H1316       H  0.98686925  0.36310126  0.78347075     0.15200
C1317       C  0.48995654  0.13177606  0.74804312    -0.14400
C1318       C  0.51346571  0.11550002  0.75684051    -0.29600
H1319       H  0.96476489  0.11743762  0.73784038     0.14600
H1320       H  0.53496543  0.12717208  0.76459005     0.15200
C1321       C  0.56683744  0.25132377  0.83820681    -0.11200
C1322       C  0.57027539  0.25189612  0.86994475    -0.12800
C1323       C  0.44155683  0.24476566  0.60305906    -0.11200
C1324       C  0.44211998  0.24254315  0.63511690    -0.12800
C1325       C  0.50596714  0.36569688  0.49267794    -0.14400
C1326       C  0.48419190  0.38420562  0.50535749    -0.29600
H1327       H  0.52763737  0.37604055  0.48041277     0.14600
H1328       H  0.97070661  0.36996007  0.02654922     0.15200
C1329       C  0.49942944  0.13860721  0.97582603    -0.14400
C1330       C  0.50360890  0.12122188  0.00434885    -0.29600
H1331       H  0.97886659  0.12583710  0.96588504     0.14600
H1332       H  0.50400014  0.13348913  0.52914893     0.15200
N1333       N  0.48432007  0.71812223  0.02246844    -0.34600
N1334       N  0.02449432  0.71594874  0.46029134    -0.55100
N1335       N  0.02658342  0.78317776  0.46136151    -0.34600
N1336       N  0.48833604  0.78558574  0.02390402    -0.55100
C1337       C  0.98691703  0.68568014  0.01678770     0.29000
C1338       C  0.46050229  0.72374190  0.04633318     0.29000
C1339       C  0.03660534  0.77750453  0.42696582     0.29000
C1340       C  0.53371154  0.81832143  0.45335155     0.29000
C1341       C  0.02418769  0.68547492  0.46658755     0.37600
C1342       C  0.04580991  0.72211678  0.43289173     0.37600
C1343       C  0.47440470  0.77937027  0.05676243     0.37600
C1344       C  0.50025954  0.81510580  0.02530675     0.37600
C1345       C  0.96214567  0.67085578  0.03667489    -0.19900
C1346       C  0.44148571  0.69699605  0.05180038    -0.19900
C1347       C  0.03409771  0.80345682  0.40632552    -0.19900
C1348       C  0.53860804  0.83203640  0.41994548    -0.19900
C1349       C  0.04587566  0.67218642  0.44340829    -0.20900
C1350       C  0.05943100  0.69542809  0.42179428    -0.20900
C1351       C  0.47736920  0.80507289  0.07902641    -0.20900
C1352       C  0.49393134  0.82766063  0.05911921    -0.20900
C1353       C  0.00218563  0.66916028  0.49008301    -0.16300
C1354       C  0.45802787  0.75122759  0.06645457    -0.16300
C1355       C  0.51468990  0.83132452  0.99544682    -0.16300
C1356       C  0.04868821  0.74993290  0.41385286    -0.16300
H1357       H  0.95433540  0.64669395  0.03567390     0.16600
H1358       H  0.42102884  0.69386706  0.07004166     0.16600
H1359       H  0.04033460  0.80640914  0.37794894     0.16600
H1360       H  0.53416904  0.85526312  0.41286352     0.16600
H1361       H  0.05038730  0.64808090  0.44114789     0.14900
H1362       H  0.07631893  0.69279531  0.39941631     0.14900
H1363       H  0.46858779  0.80736471  0.10672688     0.14900
H1364       H  0.50047722  0.85069394  0.06848176     0.14900
H1365       H  0.50404548  0.73280491  0.01742615     0.28200
H1366       H  0.02836168  0.76911731  0.48338900     0.28200
N1367       N  0.51681258  0.71641356  0.26389621    -0.34600
N1368       N  0.52043849  0.78388601  0.26373254    -0.55100
N1369       N  0.47423647  0.78163026  0.21219574    -0.34600
N1370       N  0.46835821  0.71428130  0.21362583    -0.55100
C1371       C  0.53132939  0.72359309  0.29412285     0.29000
C1372       C  0.50406749  0.68719729  0.26767883     0.29000
C1373       C  0.47622397  0.81234792  0.21891646     0.29000
C1374       C  0.45191892  0.77566553  0.18914350     0.29000
C1375       C  0.54435537  0.77949794  0.28375487     0.37600
C1376       C  0.52157166  0.81430844  0.25669961     0.37600
C1377       C  0.47455229  0.68430456  0.21345564     0.37600
C1378       C  0.45538477  0.71885787  0.18246288     0.37600
C1379       C  0.52778387  0.69863966  0.31726144    -0.19900
C1380       C  0.51039405  0.67579513  0.30067958    -0.19900
C1381       C  0.45419833  0.82595778  0.20043444    -0.19900
C1382       C  0.43905854  0.80283062  0.18140598    -0.19900
C1383       C  0.56081957  0.80737542  0.28977663    -0.20900
C1384       C  0.54633753  0.82947332  0.27266719    -0.20900
C1385       C  0.46454335  0.66952739  0.18282493    -0.20900
C1386       C  0.45253172  0.69146695  0.16305168    -0.20900
C1387       C  0.54841277  0.75166179  0.30101676    -0.16300
C1388       C  0.48865439  0.67004519  0.24097119    -0.16300
C1389       C  0.44654777  0.74742085  0.17078695    -0.16300
C1390       C  0.49964224  0.82873349  0.23767466    -0.16300
H1391       H  0.53663071  0.69701019  0.34350962     0.16600
H1392       H  0.50328255  0.65331922  0.31171964     0.16600
H1393       H  0.45049728  0.85022743  0.19918074     0.16600
H1394       H  0.42152002  0.80581783  0.16276830     0.16600
H1395       H  0.58062299  0.81145647  0.30570799     0.14900
H1396       H  0.55295807  0.85393292  0.27257807     0.14900
H1397       H  0.46640419  0.64565025  0.17505594     0.14900
H1398       H  0.44307175  0.68770902  0.13713772     0.14900
H1399       H  0.51834919  0.72945737  0.24055773     0.28200
H1400       H  0.49010918  0.76620250  0.21818830     0.28200
O1401       O  0.98843879  0.51718457  0.42359692    -0.76500
C1402       C  0.91903340  0.50776347  0.00772425     0.84600
O1403       O  0.52907002  0.57251581  0.02618918    -0.77600
O1404       O  0.98330502  0.97825125  0.09732327    -0.79100
O1405       O  0.51797520  0.93221351  0.47769275    -0.78900
O1406       O  0.51863390  0.98714080  0.41358255    -0.77500
Zn1407     Zn  0.98200123  0.52484760  0.47887494     1.55700
O1408       O  0.97585164  0.92715819  0.03073991    -0.78900
Cd1409     Cd  0.52607225  0.97920938  0.46848040     1.59700
Cd1410     Cd  0.53384114  0.52609725  0.03533246     1.59600
O1411       O  0.57173657  0.99154892  0.47871268    -0.78900
O1412       O  0.50528306  0.50138605  0.00358420    -1.89400
Cd1413     Cd  0.97185057  0.97288943  0.04350161     1.59900
O1414       O  0.57944325  0.51784886  0.01936620    -0.78800
O1415       O  0.92608713  0.98198733  0.03963017    -0.77500
C1416       C  0.51289916  0.58672404  0.00536407     0.85000
C1417       C  0.50314655  0.50411537  0.39947481     0.84700
O1418       O  0.93617810  0.51554360  0.49234198    -0.76400
C1419       C  0.49477729  0.91570277  0.00430350     0.85500
O1420       O  0.99332518  0.56985142  0.49017281    -0.76500
C1421       C  0.59214119  0.50177558  0.99429220     0.85600
C1422       C  0.50469459  0.49984896  0.10948390     0.86000
O1423       O  0.52535114  0.51692949  0.09146524    -0.79000
O1424       O  0.98328745  0.51354763  0.17304028    -0.76500
C1425       C  0.91433879  0.49056165  0.26359795     0.84600
O1426       O  0.52532237  0.57340122  0.27114782    -0.77600
O1427       O  0.97394603  0.98283419  0.34689361    -0.79100
O1428       O  0.50881045  0.92777105  0.23143425    -0.78900
O1429       O  0.51937714  0.98056977  0.16347696    -0.77500
Zn1430     Zn  0.97495034  0.51975898  0.22821458     1.55700
O1431       O  0.97222641  0.92565759  0.28311137    -0.78900
Cd1432     Cd  0.52421748  0.97299343  0.21942130     1.59700
Cd1433     Cd  0.52886002  0.52844643  0.28483224     1.59600
O1434       O  0.57087091  0.97842112  0.23082118    -0.78900
O1435       O  0.50229646  0.50075699  0.25411873    -1.89400
Cd1436     Cd  0.96787457  0.97278807  0.29109066     1.59900
O1437       O  0.57430113  0.51971929  0.27389149    -0.78800
O1438       O  0.92358056  0.98257907  0.27695905    -0.77500
C1439       C  0.50789630  0.58594023  0.25052967     0.85000
C1440       C  0.50426864  0.49947720  0.14981195     0.84700
O1441       O  0.92998443  0.50731141  0.24007209    -0.76400
C1442       C  0.48908895  0.91487795  0.25460330     0.85500
O1443       O  0.98225349  0.56510907  0.24019665    -0.76500
C1444       C  0.58841946  0.50145281  0.25274603     0.85600
C1445       C  0.49724209  0.00166309  0.35891716     0.86000
O1446       O  0.51898697  0.52410343  0.34092841    -0.79000
N1447       N  0.79151831  0.50646784  0.02138071    -0.34600
N1448       N  0.79062454  0.52323648  0.46704769    -0.55100
N1449       N  0.72289221  0.51746625  0.47139443    -0.34600
N1450       N  0.72448267  0.49947801  0.02397219    -0.55100
C1451       C  0.81952934  0.52142970  0.02486880     0.29000
C1452       C  0.78395268  0.49111755  0.05231315     0.29000
C1453       C  0.72933643  0.53657658  0.44330988     0.29000
C1454       C  0.69276221  0.51963680  0.48246247     0.29000
C1455       C  0.82083432  0.51777006  0.46715515     0.37600
C1456       C  0.78560216  0.52999239  0.43283462     0.37600
C1457       C  0.72951389  0.47460265  0.04323324     0.37600
C1458       C  0.69387944  0.49840085  0.01965038     0.37600
C1459       C  0.82931634  0.51650126  0.05874511    -0.19900
C1460       C  0.80703879  0.49697754  0.07595347    -0.19900
C1461       C  0.70309405  0.55102941  0.43609476    -0.19900
C1462       C  0.68008779  0.54069229  0.46118290    -0.19900
C1463       C  0.83527412  0.52164931  0.43302004    -0.20900
C1464       C  0.81284791  0.52925968  0.41115563    -0.20900
C1465       C  0.70189571  0.45723359  0.05101580    -0.20900
C1466       C  0.67918316  0.47259284  0.03652115    -0.20900
C1467       C  0.83788351  0.53590578  0.99644157    -0.16300
C1468       C  0.75747245  0.47086032  0.05897060    -0.16300
C1469       C  0.67908434  0.52153435  0.00267789    -0.16300
C1470       C  0.75703215  0.53804825  0.42138663    -0.16300
H1471       H  0.85078571  0.52525993  0.06946137     0.16600
H1472       H  0.80789129  0.48804139  0.10276245     0.16600
H1473       H  0.70069433  0.56692697  0.41455544     0.19600
H1474       H  0.65650888  0.54731574  0.46279339     0.16600
H1475       H  0.85930809  0.51905833  0.42465177     0.14900
H1476       H  0.81627016  0.53398863  0.38267528     0.14900
H1477       H  0.69832744  0.43638563  0.06669196     0.14900
H1478       H  0.65469640  0.46571563  0.03862769     0.14900
H1479       H  0.78023421  0.50349163  0.99765939     0.28200
H1480       H  0.73727358  0.50098634  0.47890844     0.28200
N1481       N  0.78427614  0.50620452  0.26959566    -0.34600
N1482       N  0.71697914  0.50175087  0.27333386    -0.55100
N1483       N  0.71875497  0.46339949  0.20918571    -0.34600
N1484       N  0.78643456  0.47073491  0.20467776    -0.55100
C1485       C  0.77775875  0.52767410  0.29492163     0.29000
C1486       C  0.81464973  0.51107436  0.25916683     0.29000
C1487       C  0.68873980  0.47016440  0.21218599     0.29000
C1488       C  0.72539028  0.45603542  0.17430260     0.29000
C1489       C  0.72187112  0.51272786  0.30661498     0.37600
C1490       C  0.68715947  0.49051225  0.27436996     0.37600
C1491       C  0.81705472  0.47278222  0.20942635     0.37600
C1492       C  0.78224749  0.45214097  0.17596703     0.37600
C1493       C  0.80413179  0.54652592  0.30054358    -0.19900
C1494       C  0.82744603  0.53611694  0.27779582    -0.19900
C1495       C  0.67599548  0.46627861  0.17928170    -0.19900
C1496       C  0.69907387  0.45738742  0.15541312    -0.19900
C1497       C  0.69500680  0.50862682  0.32891289    -0.20900
C1498       C  0.67296438  0.49444313  0.30841370    -0.20900
C1499       C  0.83244382  0.45512993  0.18371848    -0.20900
C1500       C  0.81038482  0.44229487  0.16224823    -0.20900
C1501       C  0.74987907  0.52775584  0.31635641    -0.16300
C1502       C  0.83140457  0.49237059  0.23478275    -0.16300
C1503       C  0.75437909  0.44812567  0.15882041    -0.16300
C1504       C  0.67228226  0.47908424  0.24400898    -0.16300
H1505       H  0.80647846  0.56526747  0.31976791     0.16600
H1506       H  0.85122882  0.54557837  0.27570818     0.16600
H1507       H  0.65260375  0.46987664  0.17292481     0.16600
H1508       H  0.69661523  0.45260870  0.12726773     0.16600
H1509       H  0.69158751  0.51537015  0.35687700     0.14900
H1510       H  0.64919925  0.48796531  0.31746445     0.14900
H1511       H  0.85707003  0.45269745  0.17993329     0.14900
H1512       H  0.81462969  0.42817603  0.13854697     0.14900
H1513       H  0.77014280  0.48688521  0.26398976     0.28200
H1514       H  0.73303119  0.46173305  0.23006942     0.28200
C1515       C  0.75157538  0.53991324  0.35224339    -0.11200
C1516       C  0.75457622  0.54327620  0.38378862    -0.12800
C1517       C  0.75664776  0.44359489  0.12047587    -0.11200
C1518       C  0.75697615  0.45106724  0.08961618    -0.12800
C1519       C  0.62211302  0.50193586  0.25402502    -0.14400
C1520       C  0.63803339  0.47767240  0.24401423    -0.29600
H1521       H  0.63407890  0.52257688  0.26450134     0.14600
H1522       H  0.62459763  0.95427677  0.22398248     0.15200
C1523       C  0.88031071  0.48829235  0.26368244    -0.14400
C1524       C  0.86568454  0.49486679  0.23438329    -0.29600
H1525       H  0.87600926  0.00003334  0.21644710     0.14600
H1526       H  0.87888637  0.50081917  0.20930047     0.15200
C1527       C  0.64488791  0.52156362  0.00790122    -0.14400
C1528       C  0.62621928  0.50212218  0.98959947    -0.29600
H1529       H  0.63282105  0.51147712  0.54160859     0.14600
H1530       H  0.62932653  0.98372632  0.97764973     0.15200
C1531       C  0.88544734  0.50980252  0.00691057    -0.14400
C1532       C  0.87230932  0.53454624  0.99493808    -0.29600
H1533       H  0.86684745  0.99052898  0.04512417     0.14600
H1534       H  0.88226012  0.53180608  0.48051482     0.15200
C1535       C  0.50296551  0.86285834  0.23517091    -0.14400
C1536       C  0.48479961  0.88085624  0.25558220    -0.29600
H1537       H  0.52189607  0.87306352  0.21765978     0.14600
H1538       H  0.96933044  0.86576078  0.28658726     0.15200
C1539       C  0.48633575  0.63575140  0.24175188    -0.14400
C1540       C  0.51035679  0.61968941  0.24883852    -0.29600
H1541       H  0.95567298  0.61643814  0.24301049     0.14600
H1542       H  0.53211413  0.63166527  0.25528547     0.15200
C1543       C  0.56520585  0.75339200  0.33299817    -0.11200
C1544       C  0.56975184  0.75447216  0.36435278    -0.12800
C1545       C  0.44238646  0.74941174  0.10184806    -0.11200
C1546       C  0.43848083  0.74881618  0.13405151    -0.12800
C1547       C  0.51680581  0.86558556  0.99527650    -0.14400
C1548       C  0.49273186  0.88193273  0.00589120    -0.29600
H1549       H  0.53802529  0.87746337  0.98380259     0.14600
H1550       H  0.96615665  0.86819652  0.52095182     0.15200
C1551       C  0.51581386  0.64044942  0.47957918    -0.14400
C1552       C  0.52137925  0.62351129  0.50803806    -0.29600
H1553       H  0.99115323  0.62380286  0.46478608     0.14600
H1554       H  0.53419054  0.63215002  0.02110936     0.15200
N1555       N  0.49923483  0.71957373  0.51412232    -0.34600
N1556       N  0.02790543  0.71783999  0.96031743    -0.55100
N1557       N  0.03236047  0.78496374  0.96281977    -0.34600
N1558       N  0.49970807  0.78672598  0.51478396    -0.55100
C1559       C  0.98015299  0.68380904  0.51273268     0.29000
C1560       C  0.47540379  0.72429211  0.53830713     0.29000
C1561       C  0.04083632  0.77979149  0.92783895     0.29000
C1562       C  0.52639675  0.81621205  0.96431702     0.29000
C1563       C  0.02745810  0.68728214  0.96622239     0.37600
C1564       C  0.04775889  0.72374902  0.93139392     0.37600
C1565       C  0.48725704  0.78013933  0.54819946     0.37600
C1566       C  0.51048543  0.81659383  0.51557928     0.37600
C1567       C  0.95432430  0.66894042  0.53061417    -0.19900
C1568       C  0.45757112  0.69689950  0.54440258    -0.19900
C1569       C  0.03868146  0.80641586  0.90829728    -0.19900
C1570       C  0.53304950  0.83013001  0.93121093    -0.19900
C1571       C  0.04743591  0.67372335  0.94113612    -0.20900
C1572       C  0.06012787  0.69684364  0.91884812    -0.20900
C1573       C  0.49013363  0.80586569  0.57037131    -0.20900
C1574       C  0.50514690  0.82894476  0.54971555    -0.20900
C1575       C  0.00702197  0.67109123  0.99158265    -0.16300
C1576       C  0.47188778  0.75165281  0.55816398    -0.16300
C1577       C  0.52248930  0.83319789  0.48486917    -0.16300
C1578       C  0.05096999  0.75196781  0.91312458    -0.16300
H1579       H  0.94690737  0.64468664  0.52946094     0.16600
H1580       H  0.43734222  0.69307570  0.56287048     0.16600
H1581       H  0.04392886  0.80983610  0.87980572     0.16600
H1582       H  0.53028734  0.85378901  0.92425372     0.16600
H1583       H  0.05154120  0.64954860  0.93834483     0.14900
H1584       H  0.07584296  0.69406936  0.89538598     0.14900
H1585       H  0.48223351  0.80780915  0.59843416     0.14900
H1586       H  0.51115935  0.85220178  0.55873989     0.14900
H1587       H  0.51821628  0.73504023  0.50824194     0.28200
H1588       H  0.03435905  0.77023884  0.98414922     0.28200
N1589       N  0.50419691  0.71247852  0.76914075    -0.34600
N1590       N  0.50996065  0.77984225  0.76806147    -0.55100
N1591       N  0.47201896  0.77790401  0.70825504    -0.34600
N1592       N  0.46355573  0.71056580  0.71023734    -0.55100
C1593       C  0.51503112  0.71976151  0.80154006     0.29000
C1594       C  0.49025012  0.68363320  0.77163572     0.29000
C1595       C  0.47353404  0.80860756  0.71480427     0.29000
C1596       C  0.45261234  0.77214885  0.68194535     0.29000
C1597       C  0.53150581  0.77491053  0.79120150     0.37600
C1598       C  0.51337275  0.81003527  0.75974187     0.37600
C1599       C  0.46956217  0.68057321  0.71171516     0.37600
C1600       C  0.45662415  0.71552236  0.67613287     0.37600
C1601       C  0.50770196  0.69538017  0.82495649    -0.19900
C1602       C  0.49180619  0.67270799  0.80616045    -0.19900
C1603       C  0.45409060  0.82243544  0.69290022    -0.19900
C1604       C  0.44110125  0.79941341  0.67188230    -0.19900
C1605       C  0.54871869  0.80222218  0.79791146    -0.20900
C1606       C  0.53715405  0.82454623  0.77798506    -0.20900
C1607       C  0.46538811  0.66616477  0.67889180    -0.20900
C1608       C  0.45738279  0.68838262  0.65623020    -0.20900
C1609       C  0.53265810  0.74717571  0.80987821    -0.16300
C1610       C  0.47879872  0.66620595  0.74244222    -0.16300
C1611       C  0.45000693  0.74425123  0.66255693    -0.16300
C1612       C  0.49456403  0.82474064  0.73685973    -0.16300
H1613       H  0.51328670  0.69399711  0.85269986     0.16600
H1614       H  0.48282189  0.65051951  0.81661186     0.16600
H1615       H  0.45092163  0.84676952  0.69081950     0.16600
H1616       H  0.42615391  0.80253779  0.65037797     0.16600
H1617       H  0.56719860  0.80579218  0.81584795     0.14900
H1618       H  0.54515948  0.84868159  0.77724307     0.14900
H1619       H  0.46874369  0.64241856  0.67165680     0.14900
H1620       H  0.45301403  0.68501067  0.62818893     0.14900
H1621       H  0.50937707  0.72494154  0.74558998     0.28200
H1622       H  0.48699502  0.76241675  0.71650239     0.28200
O1623       O  0.99246197  0.52004849  0.92157690    -0.76500
C1624       C  0.92040605  0.49647356  0.51334759     0.84600
O1625       O  0.53090474  0.57404123  0.52929581    -0.77600
O1626       O  0.98323114  0.97855343  0.59859286    -0.79100
O1627       O  0.51345942  0.92954045  0.98083196    -0.78900
O1628       O  0.51621940  0.98217723  0.91304620    -0.77500
Zn1629     Zn  0.98381798  0.52850865  0.97613727     1.55700
O1630       O  0.97395470  0.92732585  0.53094714    -0.78900
Cd1631     Cd  0.52387644  0.97548269  0.96779973     1.59700
Cd1632     Cd  0.53298061  0.52650472  0.53555912     1.59600
O1633       O  0.57045214  0.98507176  0.97427287    -0.78900
O1634       O  0.50291683  0.50457904  0.50319915    -1.89400
Cd1635     Cd  0.97121008  0.97317016  0.54457868     1.59900
O1636       O  0.57770198  0.51456899  0.51985791    -0.78800
O1637       O  0.92566971  0.98395068  0.54214004    -0.77500
C1638       C  0.51713944  0.58953763  0.50720097     0.85000
C1639       C  0.50404515  0.49945526  0.89895488     0.84700
O1640       O  0.93748948  0.52427198  0.98655526    -0.76400
C1641       C  0.49916483  0.91620821  0.49909691     0.85500
O1642       O  0.99761610  0.57236056  0.98787971    -0.76500
C1643       C  0.58886890  0.49720303  0.49501677     0.85600
C1644       C  0.50099086  0.50080160  0.60816245     0.86000
O1645       O  0.52368992  0.51551829  0.59069096    -0.79000
O1646       O  0.98616738  0.51149335  0.67366581    -0.76500
C1647       C  0.91766714  0.49387205  0.76739952     0.84600
O1648       O  0.51884097  0.56985692  0.77284635    -0.77600
O1649       O  0.97543867  0.98068564  0.84881669    -0.79100
O1650       O  0.50823629  0.92330742  0.73178191    -0.78900
O1651       O  0.51620813  0.97503499  0.66322968    -0.77500
Zn1652     Zn  0.97873849  0.51969819  0.72877239     1.55700
O1653       O  0.97239700  0.92492853  0.78287997    -0.78900
Cd1654     Cd  0.52415515  0.96796221  0.71844993     1.59700
Cd1655     Cd  0.52763120  0.52493346  0.78344409     1.59600
O1656       O  0.57159275  0.97237841  0.72730783    -0.78900
O1657       O  0.50129991  0.49687248  0.75260638    -1.89400
Cd1658     Cd  0.96842756  0.97177004  0.79314958     1.59900
O1659       O  0.57389820  0.51871472  0.76928196    -0.78800
O1660       O  0.92368235  0.98098799  0.78090776    -0.77500
C1661       C  0.49922532  0.58203877  0.75462181     0.85000
C1662       C  0.50086681  0.49879156  0.64822157     0.84700
O1663       O  0.93327355  0.51114450  0.74422468    -0.76400
C1664       C  0.48897433  0.91114151  0.75589071     0.85500
O1665       O  0.98986386  0.56510708  0.73789031    -0.76500
C1666       C  0.58772873  0.50321426  0.74453403     0.85600
C1667       C  0.49805818  0.99883096  0.85775996     0.86000
O1668       O  0.51976984  0.51877061  0.83984481    -0.79000
N1669       N  0.78904733  0.48810560  0.53245989    -0.34600
N1670       N  0.79360822  0.55618007  0.97046750    -0.55100
N1671       N  0.72598272  0.54729711  0.97189108    -0.34600
N1672       N  0.72128409  0.48514168  0.53740263    -0.55100
C1673       C  0.81794244  0.50227660  0.53050755     0.29000
C1674       C  0.78137262  0.48180090  0.56750642     0.29000
C1675       C  0.73165852  0.57100127  0.94887963     0.29000
C1676       C  0.69530111  0.54532914  0.98183241     0.29000
C1677       C  0.82401053  0.55095581  0.96919604     0.37600
C1678       C  0.78895672  0.56981926  0.93921225     0.37600
C1679       C  0.72585145  0.46566041  0.56395683     0.37600
C1680       C  0.69062441  0.48302632  0.53307393     0.37600
C1681       C  0.82846989  0.50545654  0.56466438    -0.19900
C1682       C  0.80547761  0.49238650  0.58796829    -0.19900
C1683       C  0.70428869  0.58431352  0.94375118    -0.19900
C1684       C  0.68139977  0.56843579  0.96501015    -0.19900
C1685       C  0.83903475  0.56243094  0.93773141    -0.20900
C1686       C  0.81678616  0.57436713  0.91870917    -0.20900
C1687       C  0.69794542  0.45068430  0.57638889    -0.20900
C1688       C  0.67554921  0.46180719  0.55682534    -0.20900
C1689       C  0.83544549  0.51081928  0.49829849    -0.16300
C1690       C  0.75357153  0.46597266  0.58125717    -0.16300
C1691       C  0.67605778  0.50162078  0.50966826    -0.16300
C1692       C  0.75995302  0.57784274  0.92874024    -0.16300
H1693       H  0.85034583  0.51628495  0.57211126     0.16600
H1694       H  0.80621518  0.49147776  0.61678567     0.16600
H1695       H  0.70108953  0.60300731  0.92583318     0.19600
H1696       H  0.65706363  0.57251553  0.96649009     0.16600
H1697       H  0.86325214  0.56178260  0.92899396     0.14900
H1698       H  0.82070759  0.58515429  0.89276959     0.14900
H1699       H  0.69398720  0.43459517  0.59840085     0.14900
H1700       H  0.65096419  0.45553840  0.56023395     0.14900
H1701       H  0.77651329  0.48039127  0.51083015     0.28200
H1702       H  0.74167291  0.53112026  0.97619601     0.28200
N1703       N  0.78811647  0.53371623  0.78733055    -0.34600
N1704       N  0.72032736  0.53491571  0.78966138    -0.55100
N1705       N  0.71950581  0.49193136  0.73076554    -0.34600
N1706       N  0.78708790  0.48999802  0.72885818    -0.55100
C1707       C  0.78393867  0.55781377  0.80998050     0.29000
C1708       C  0.81900674  0.53309105  0.77924071     0.29000
C1709       C  0.68916009  0.48905166  0.74236127     0.29000
C1710       C  0.72445282  0.46866545  0.70720079     0.29000
C1711       C  0.72594997  0.55643918  0.81518674     0.37600
C1712       C  0.68933364  0.53178503  0.78756633     0.37600
C1713       C  0.81808912  0.49320042  0.73064763     0.37600
C1714       C  0.78182626  0.47287618  0.69924564     0.37600
C1715       C  0.81242844  0.57245651  0.81655065    -0.19900
C1716       C  0.83453287  0.55677057  0.79741704    -0.19900
C1717       C  0.67513391  0.46306634  0.72646173    -0.19900
C1718       C  0.69724793  0.45073693  0.70355050    -0.19900
C1719       C  0.69840057  0.56733359  0.82927723    -0.20900
C1720       C  0.67523165  0.55198702  0.81152681    -0.20900
C1721       C  0.83250765  0.47721743  0.70259606    -0.20900
C1722       C  0.80949985  0.46450248  0.68254928    -0.20900
C1723       C  0.75544017  0.56646827  0.82623186    -0.16300
C1724       C  0.83379684  0.51240940  0.75525054    -0.16300
C1725       C  0.75245468  0.46422217  0.68727476    -0.16300
C1726       C  0.67356697  0.50988954  0.76570100    -0.16300
H1727       H  0.81676711  0.59295521  0.83263630     0.16600
H1728       H  0.85920707  0.56269491  0.79627738     0.16600
H1729       H  0.65138345  0.45383585  0.73068302     0.16600
H1730       H  0.69391432  0.43055002  0.68659713     0.16600
H1731       H  0.69534217  0.58476268  0.84995132     0.14900
H1732       H  0.65083150  0.55525539  0.81618099     0.14900
H1733       H  0.85707284  0.47567419  0.69651526     0.14900
H1734       H  0.81273407  0.45039282  0.65864853     0.14900
H1735       H  0.77107252  0.51716371  0.78060558     0.28200
H1736       H  0.73521414  0.51062621  0.73479375     0.28200
C1737       C  0.75661062  0.58288129  0.86004012    -0.11200
C1738       C  0.75807277  0.58657630  0.89187448    -0.12800
C1739       C  0.75094040  0.45457417  0.65030397    -0.11200
C1740       C  0.75175437  0.45573224  0.61806060    -0.12800
C1741       C  0.62174255  0.50538190  0.74065200    -0.14400
C1742       C  0.63898325  0.50793892  0.76923319    -0.29600
H1743       H  0.63278179  0.50357146  0.71373798     0.14600
H1744       H  0.62299363  0.94145122  0.72958951     0.15200
C1745       C  0.88355439  0.49414740  0.77086890    -0.14400
C1746       C  0.86815740  0.51372629  0.75248547    -0.29600
H1747       H  0.87542752  0.99679423  0.72020188     0.14600
H1748       H  0.88054337  0.53050012  0.73446423     0.15200
C1749       C  0.64200457  0.50363558  0.51549444    -0.14400
C1750       C  0.62267443  0.49473329  0.49012134    -0.29600
H1751       H  0.63526023  0.53851896  0.02626404     0.14600
H1752       H  0.63026444  0.99321614  0.48488951     0.15200
C1753       C  0.88631561  0.49440793  0.51456108    -0.14400
C1754       C  0.87001465  0.51394864  0.49719039    -0.29600
H1755       H  0.86705350  0.99356529  0.55125208     0.14600
H1756       H  0.88694532  0.55372070  0.98341849     0.15200
C1757       C  0.49856233  0.85873272  0.73390766    -0.14400
C1758       C  0.48458282  0.87722278  0.75807750    -0.29600
H1759       H  0.51301832  0.86833695  0.71125933     0.14600
H1760       H  0.96954146  0.86483200  0.78289422     0.15200
C1761       C  0.47680654  0.63173683  0.74315545    -0.14400
C1762       C  0.49932871  0.61598403  0.75550387    -0.29600
H1763       H  0.96832309  0.61776050  0.73346700     0.14600
H1764       H  0.51910756  0.62849448  0.76653078     0.15200
C1765       C  0.54793892  0.74833426  0.84305358    -0.11200
C1766       C  0.55388767  0.74972115  0.87405169    -0.12800
C1767       C  0.45524189  0.74929503  0.59289032    -0.11200
C1768       C  0.44797806  0.74667750  0.62439387    -0.12800
C1769       C  0.52281977  0.86740954  0.48469926    -0.14400
C1770       C  0.49846086  0.88241539  0.49768986    -0.29600
H1771       H  0.54311627  0.88032882  0.47243763     0.14600
H1772       H  0.97146694  0.86761575  0.02236537     0.15200
C1773       C  0.49805199  0.63820545  0.98795441    -0.14400
C1774       C  0.51629466  0.62083354  0.00558682    -0.29600
H1775       H  0.99464459  0.62640749  0.96565862     0.14600
H1776       H  0.52911919  0.63489162  0.53227152     0.15200
loop_ 
_geom_bond_atom_site_label_1 
_geom_bond_atom_site_label_2 
_geom_bond_distance 
_geom_bond_site_symmetry_2 
_ccdc_geom_bond_type 
N1            C6   1.350       .  A
N1          C893   1.354       .  A
N1           H33   1.038   1_655  S
N2            C9   1.352       .  A
N2           C10   1.348       .  A
N3            C7   1.351       .  A
N3          C896   1.354       .  A
N3           H34   1.040       .  S
N4           C11   1.349       .  A
N4           C12   1.352       .  A
C5          N889   1.353       .  A
C5           C13   1.388       .  A
C5          C243   1.417   1_554  A
C6           C22   1.410       .  A
C6           C14   1.387       .  A
C7           C15   1.390       .  A
C7           C24   1.411       .  A
C8          N891   1.357       .  A
C8           C16   1.385       .  A
C8          C245   1.412       .  A
C9           C21   1.413       .  A
C9           C17   1.386       .  A
C10          C24   1.408       .  A
C10          C18   1.387       .  A
C11          C19   1.388       .  A
C11          C22   1.409       .  A
C12          C20   1.385       .  A
C12          C23   1.409   1_654  A
C13         C902   1.378       .  A
C13          H25   1.082       .  S
C14         C901   1.378       .  A
C14          H26   1.082       .  S
C15         C904   1.370       .  A
C15          H27   1.082       .  S
C16         C903   1.373       .  A
C16          H28   1.082       .  S
C17          C18   1.374       .  A
C17          H29   1.082       .  S
C18          H30   1.083       .  S
C19          C20   1.369       .  A
C19          H31   1.081       .  S
C20          H32   1.082   1_655  S
C21         C227   1.418       .  A
C21        C1107   1.490       .  S
C22         C213   1.439       .  S
C23         C230   1.412       .  A
C23         C215   1.492   1_556  S
C24        C1100   1.438       .  S
N35          C40   1.354       .  A
N35          C39   1.350       .  A
N35          H67   1.042       .  S
N36          C43   1.346       .  A
N36          C44   1.350       .  A
N37          C42   1.349       .  A
N37          C41   1.356       .  A
N37          H68   1.038   1_655  S
N38          C45   1.353       .  A
N38          C46   1.349       .  A
C39          C47   1.390       .  A
C39          C55   1.413       .  A
C40          C56   1.410   1_455  A
C40          C48   1.384       .  A
C41          C49   1.388       .  A
C41          C58   1.419   1_655  A
C42          C57   1.410       .  A
C42          C50   1.386       .  A
C43          C55   1.406       .  A
C43          C51   1.387       .  A
C44          C58   1.412       .  A
C44          C52   1.386       .  A
C45          C53   1.385       .  A
C45          C56   1.407       .  A
C46          C54   1.389       .  A
C46          C57   1.410       .  A
C47          C48   1.373       .  A
C47          H59   1.079       .  S
C48          H60   1.082       .  S
C49          C50   1.378       .  A
C49          H61   1.082       .  S
C50          H62   1.082       .  S
C51          C52   1.377       .  A
C51          H63   1.083       .  S
C52          H64   1.082       .  S
C53          C54   1.371       .  A
C53          H65   1.082       .  S
C54          H66   1.082       .  S
C55         C211   1.437       .  S
C56         C207   1.494       .  S
C57         C214   1.437       .  S
C58         C203   1.491       .  S
O69         Zn75   2.084       .  S
O69         C973   1.278       .  A
C70         C199   1.472       .  S
C70         O308   1.278   1_564  A
C70         O527   1.274       .  A
O71          C84   1.274       .  A
O71         Cd78   2.059       .  S
O72        C1422   1.279       .  A
O72         Cd81   2.126       .  S
O73         C309   1.278       .  A
O73         Cd77   2.084       .  S
O74         C529   1.279       .  A
O74         Cd77   2.126       .  S
Zn75         O86   2.018       .  S
Zn75         O88   2.054       .  S
Zn75       O1190   1.970       .  S
O76         C975   1.275       .  A
O76         Cd81   2.072       .  S
Cd77         O79   2.084       .  S
Cd77        O746   2.020       .  S
Cd78         O82   2.072       .  S
Cd78         O91   2.112       .  S
Cd78         O80   2.014   1_445  S
O79         C755   1.278       .  A
O80       Zn1185   1.970   1_564  S
O80        Cd743   2.009   1_654  S
O80       Cd1413   2.015       .  S
Cd81         O83   2.057       .  S
Cd81       O1412   2.019       .  S
O82          C89   1.275       .  A
O83         C514   1.274       .  A
C84         C442   1.478       .  S
C84        O1198   1.281   1_454  A
C85         O957   1.282   1_565  A
C85         O518   1.281   1_655  A
C85         C557   1.512       .  S
O86         C292   1.277   1_545  A
C87         C216   1.475       .  S
C87         O295   1.275   1_654  A
C87         O964   1.277       .  A
O88        C1194   1.280       .  A
C89         C196   1.474   1_554  S
C89         O745   1.277   1_544  A
C90          O91   1.277   1_565  A
C90        O1404   1.277   1_455  A
C90         C108   1.490       .  S
O92         Zn98   2.062       .  S
O92         C996   1.275       .  A
C93         C191   1.476       .  S
C93         O109   1.273       .  A
C93         O550   1.279   1_545  A
O94         C107   1.277       .  A
O94        Cd101   2.085       .  S
O95        C1001   1.278       .  A
O95        Cd104   2.121       .  S
O96         C110   1.281   1_455  A
O96        Cd100   2.100       .  S
O97         C552   1.280       .  A
O97        Cd100   2.131       .  S
Zn98        O109   2.011       .  S
Zn98        O111   2.016       .  S
Zn98        O991   1.960       .  S
O99         C998   1.277       .  A
O99        Cd104   2.080       .  S
Cd100       O102   2.083       .  S
Cd100       O547   2.022       .  S
Cd101       O105   2.074       .  S
Cd101       O114   2.134       .  S
Cd101       O103   2.008   1_445  S
O102        C556   1.276       .  A
O103       Zn986   1.958   1_565  S
O103       Cd544   2.026   1_655  S
O103      Cd1436   2.024       .  S
Cd104       O106   2.081       .  S
Cd104      O1435   2.014       .  S
O105        C112   1.276   1_545  A
O106        C537   1.277       .  A
C107        C208   1.475       .  S
C107        O999   1.275   1_455  A
C108        O980   1.274   1_465  A
C108        O541   1.280       .  A
C110        C204   1.483       .  S
C110        O987   1.278       .  A
O111        C995   1.276       .  A
C112        C187   1.480       .  S
C112        O546   1.280       .  A
C113        O983   1.281   1_455  A
C113        O558   1.277       .  A
C113        C529   1.501       .  S
O114        C557   1.281   1_445  A
N115        C120   1.347       .  A
N115        C119   1.353       .  A
N115        H147   1.031       .  S
N116        C123   1.350       .  A
N116        C124   1.348       .  A
N117        C122   1.355   1_565  A
N117        C121   1.353       .  A
N117        H148   1.040       .  S
N118        C125   1.353       .  A
N118        C126   1.354       .  A
C119        C127   1.391       .  A
C119        C135   1.419   1_554  A
C120        C136   1.406       .  A
C120        C128   1.385       .  A
C121        C129   1.388       .  A
C121        C138   1.413       .  A
C122        C130   1.386       .  A
C122        C359   1.415       .  A
C123        C131   1.386       .  A
C123        C357   1.411   1_565  A
C124        C138   1.409       .  A
C124        C132   1.388       .  A
C125        C133   1.386       .  A
C125        C136   1.414       .  A
C126        C134   1.386       .  A
C126        C137   1.414       .  A
C127        C128   1.376       .  A
C127        H139   1.082       .  S
C128        H140   1.083       .  S
C129        C130   1.373   1_565  A
C129        H141   1.081       .  S
C130        H142   1.082       .  S
C131        C132   1.375       .  A
C131        H143   1.082       .  S
C132        H144   1.083       .  S
C133        C134   1.372       .  A
C133        H145   1.083       .  S
C134        H146   1.082       .  S
C135        C345   1.413   1_545  A
C135        C200   1.483       .  S
C136        C186   1.444       .  S
C137        C344   1.416   1_554  A
C137        C195   1.498       .  S
C138        C184   1.445       .  S
N149        C154   1.352       .  A
N149        C153   1.347       .  A
N149        H181   1.040       .  S
N150        C157   1.350       .  A
N150        C158   1.352       .  A
N151        C156   1.351   1_565  A
N151        C155   1.355       .  A
N151        H182   1.040       .  S
N152        C159   1.351       .  A
N152        C160   1.348       .  A
C153        C161   1.385       .  A
C153        C169   1.400       .  A
C154        C170   1.415       .  A
C154        C162   1.390       .  A
C155        C163   1.384       .  A
C155        C172   1.411       .  A
C156        C171   1.416       .  A
C156        C164   1.389   1_545  A
C157        C169   1.408       .  A
C157        C165   1.386       .  A
C158        C172   1.412       .  A
C158        C166   1.386       .  A
C159        C167   1.387       .  A
C159        C170   1.418   1_545  A
C160        C168   1.385       .  A
C160        C171   1.408       .  A
C161        C162   1.377       .  A
C161        H173   1.083       .  S
C162        H174   1.082       .  S
C163        C164   1.377       .  A
C163        H175   1.082       .  S
C164        H176   1.080   1_565  S
C165        C166   1.376       .  A
C165        H177   1.082       .  S
C166        H178   1.082       .  S
C167        C168   1.378       .  A
C167        H179   1.082       .  S
C168        H180   1.082       .  S
C169        C183   1.439       .  S
C170        C192   1.497       .  S
C171        C185   1.446       .  S
C172        C188   1.490       .  S
C183        C184   1.202       .  T
C185        C186   1.204       .  T
C187        C188   1.344       .  D
C187        H189   1.088   1_565  S
C188        H634   1.086       .  S
H190        C632   1.086       .  S
C191        C192   1.343   1_545  D
C191        H637   1.085       .  S
C192        H194   1.087       .  S
H193        C635   1.087       .  S
C195        C196   1.349   1_554  D
C195        H419   1.086       .  S
C196        H642   1.086   1_545  S
H197        C417   1.086       .  S
H198        C640   1.087       .  S
C199        C200   1.342   1_564  D
C199        H645   1.087       .  S
C200        H424   1.086       .  S
H201        C643   1.087       .  S
H202        C422   1.086       .  S
C203        C204   1.345   1_455  D
C203        H205   1.086       .  S
C204       H1094   1.087       .  S
H206       C1092   1.087       .  S
C207        C208   1.348   1_655  D
C207       H1097   1.087       .  S
C208        H210   1.086       .  S
H209       C1095   1.087       .  S
C211        C212   1.198       .  T
C212        C912   1.437       .  S
C213        C214   1.199       .  T
C215        C216   1.347   1_455  D
C215        H217   1.087   1_554  S
C216       H1328   1.086       .  S
H218       C1326   1.086       .  S
C219        C909   1.489       .  S
C219        C220   1.342       .  D
C219       H1109   1.086   1_455  S
C220        C306   1.474       .  S
C220        H444   1.087       .  S
H221       C1107   1.086       .  S
H222        C442   1.088       .  S
N223        C228   1.349       .  A
N223       C1115   1.353       .  A
N223        H255   1.039   1_655  S
N224        C231   1.353       .  A
N224        C232   1.350       .  A
N225       C1118   1.355       .  A
N225        C229   1.351       .  A
N225        H256   1.039       .  S
N226        C233   1.350       .  A
N226        C234   1.352   1_655  A
C227       N1111   1.354       .  A
C227        C235   1.388       .  A
C228        C244   1.408       .  A
C228        C236   1.386       .  A
C229        C237   1.390       .  A
C229        C246   1.414       .  A
C230       N1113   1.355       .  A
C230        C238   1.386       .  A
C231        C243   1.416       .  A
C231        C239   1.386       .  A
C232        C246   1.411       .  A
C232        C240   1.387       .  A
C233        C241   1.388       .  A
C233        C244   1.410       .  A
C234        C242   1.384       .  A
C234        C245   1.411       .  A
C235       C1124   1.378       .  A
C235        H247   1.082       .  S
C236       C1123   1.377       .  A
C236        H248   1.082       .  S
C237       C1126   1.372       .  A
C237        H249   1.082       .  S
C238       C1125   1.372       .  A
C238        H250   1.082       .  S
C239        C240   1.376       .  A
C239        H251   1.082       .  S
C240        H252   1.083       .  S
C241        C242   1.371   1_655  A
C241        H253   1.081       .  S
C242        H254   1.082       .  S
C243       C1329   1.492       .  S
C244        C435   1.441       .  S
C245        C437   1.499       .  S
C246       C1322   1.444       .  S
N257        C262   1.353   1_455  A
N257        C261   1.352       .  A
N257        H289   1.042       .  S
N258        C265   1.347       .  A
N258        C266   1.349       .  A
N259        C264   1.349       .  A
N259        C263   1.355       .  A
N259        H290   1.037       .  S
N260        C267   1.352       .  A
N260        C268   1.350       .  A
C261        C269   1.389       .  A
C261        C277   1.412       .  A
C262        C278   1.410       .  A
C262        C270   1.384       .  A
C263        C271   1.388       .  A
C263        C280   1.416   1_655  A
C264        C279   1.409       .  A
C264        C272   1.386       .  A
C265        C277   1.405       .  A
C265        C273   1.387       .  A
C266        C280   1.412       .  A
C266        C274   1.386       .  A
C267        C275   1.387       .  A
C267        C278   1.410       .  A
C268        C276   1.387       .  A
C268        C279   1.410       .  A
C269        C270   1.372   1_455  A
C269        H281   1.080       .  S
C270        H282   1.082       .  S
C271        C272   1.377       .  A
C271        H283   1.082       .  S
C272        H284   1.082       .  S
C273        C274   1.376       .  A
C273        H285   1.083       .  S
C274        H286   1.082       .  S
C275        C276   1.372       .  A
C275        H287   1.082       .  S
C276        H288   1.083       .  S
C277        C433   1.440       .  S
C278        C429   1.493       .  S
C279        C436   1.441       .  S
C280        C425   1.487       .  S
O291       Zn297   2.094       .  S
O291       C1195   1.280   1_545  A
C292        C421   1.474       .  S
C292        O749   1.277       .  A
O293        C306   1.275       .  A
O293       Cd300   2.063       .  S
O294       C1644   1.279       .  A
O294       Cd303   2.121       .  S
O295       Cd299   2.059       .  S
O296        C751   1.276       .  A
O296       Cd299   2.111       .  S
Zn297       O308   2.031       .  S
Zn297       O310   2.059       .  S
Zn297       O968   1.974   1_556  S
O298       C1197   1.274       .  A
O298       Cd303   2.074       .  S
Cd299       O301   2.071       .  S
Cd299       O524   2.007   1_556  S
Cd300       O304   2.081       .  S
Cd300       O313   2.126       .  S
Cd300       O302   2.022   1_445  S
O301        C533   1.275       .  A
O302       Zn963   1.979   1_565  S
O302       Cd521   2.015   1_655  S
O302      Cd1635   2.019       .  S
Cd303       O305   2.059       .  S
Cd303      O1634   2.012       .  S
O304        C311   1.277   1_545  A
O305        C736   1.274       .  A
C306        O976   1.280   1_455  A
C307       O1179   1.280   1_565  A
C307        O740   1.280   1_655  A
C307        C779   1.501       .  S
C309        C438   1.478       .  S
C309       O1186   1.276   1_455  A
O310        C972   1.281   1_556  A
C311        C418   1.476       .  S
C311        O523   1.276       .  A
C312       O1626   1.278   1_455  A
C312        O313   1.278   1_565  A
C312        C330   1.498       .  S
O314       Zn320   2.045       .  S
O314       C1218   1.274   1_545  A
C315        C413   1.475       .  S
C315        O331   1.271   1_565  A
C315        O772   1.279       .  A
O316        C329   1.277       .  A
O316       Cd323   2.080       .  S
O317       C1223   1.280       .  A
O317       Cd326   2.136       .  S
O318        C332   1.279       .  A
O318       Cd322   2.090       .  S
O319        C774   1.280       .  A
O319       Cd322   2.129       .  S
Zn320       O331   2.003       .  S
Zn320       O333   2.003       .  S
Zn320      O1213   1.951   1_545  S
O321       C1220   1.277       .  A
O321       Cd326   2.081       .  S
Cd322       O324   2.080       .  S
Cd322       O769   2.020       .  S
Cd323       O327   2.065       .  S
Cd323       O336   2.113       .  S
Cd323       O325   2.010   1_445  S
O324        C778   1.278       .  A
O325      Zn1208   1.956   1_565  S
O325       Cd766   2.023   1_655  S
O325      Cd1658   2.026       .  S
Cd326       O328   2.082       .  S
Cd326      O1657   2.018       .  S
O327        C334   1.275   1_545  A
O328        C759   1.277       .  A
C329        C430   1.473       .  S
C329       O1221   1.275   1_455  A
C330       O1202   1.275   1_465  A
C330        O763   1.281       .  A
C332        C426   1.479   1_455  S
C332       O1209   1.276   1_455  A
O333       C1217   1.275       .  A
C334        C409   1.479       .  S
C334        O768   1.281       .  A
C335       O1205   1.279   1_455  A
C335        O780   1.276       .  A
C335        C751   1.493       .  S
O336        C779   1.277   1_445  A
N337        C342   1.348       .  A
N337        C341   1.353       .  A
N337        H369   1.036       .  S
N338        C345   1.349       .  A
N338        C346   1.348       .  A
N339        C344   1.354   1_565  A
N339        C343   1.353       .  A
N339        H370   1.039       .  S
N340        C347   1.352       .  A
N340        C348   1.353       .  A
C341        C349   1.390       .  A
C341        C357   1.416       .  A
C342        C358   1.402       .  A
C342        C350   1.384       .  A
C343        C351   1.387       .  A
C343        C360   1.412       .  A
C344        C352   1.387       .  A
C345        C353   1.387       .  A
C346        C360   1.407       .  A
C346        C354   1.387       .  A
C347        C355   1.385       .  A
C347        C358   1.411       .  A
C348        C356   1.387       .  A
C348        C359   1.412       .  A
C349        C350   1.375       .  A
C349        H361   1.082       .  S
C350        H362   1.083       .  S
C351        C352   1.371   1_565  A
C351        H363   1.081       .  S
C352        H364   1.082       .  S
C353        C354   1.374       .  A
C353        H365   1.082       .  S
C354        H366   1.082       .  S
C355        C356   1.372       .  A
C355        H367   1.083       .  S
C356        H368   1.082       .  S
C357        C422   1.482       .  S
C358        C408   1.442       .  S
C359        C417   1.496       .  S
C360        C406   1.442       .  S
N371        C376   1.354       .  A
N371        C375   1.348       .  A
N371        H403   1.038       .  S
N372        C379   1.348       .  A
N372        C380   1.352       .  A
N373        C378   1.350   1_565  A
N373        C377   1.356       .  A
N373        H404   1.041   1_565  S
N374        C381   1.352       .  A
N374        C382   1.348       .  A
C375        C383   1.385       .  A
C375        C391   1.403       .  A
C376        C392   1.416       .  A
C376        C384   1.390       .  A
C377        C385   1.384       .  A
C377        C394   1.409       .  A
C378        C393   1.414       .  A
C378        C386   1.389       .  A
C379        C391   1.407       .  A
C379        C387   1.386       .  A
C380        C394   1.411       .  A
C380        C388   1.386       .  A
C381        C389   1.388       .  A
C381        C392   1.419   1_545  A
C382        C390   1.386       .  A
C382        C393   1.408       .  A
C383        C384   1.375       .  A
C383        H395   1.083       .  S
C384        H396   1.082       .  S
C385        C386   1.375   1_565  A
C385        H397   1.082       .  S
C386        H398   1.079       .  S
C387        C388   1.374       .  A
C387        H399   1.082       .  S
C388        H400   1.082       .  S
C389        C390   1.378       .  A
C389        H401   1.082       .  S
C390        H402   1.082       .  S
C391        C405   1.437       .  S
C392        C414   1.495       .  S
C393        C407   1.444       .  S
C394        C410   1.490       .  S
C405        C406   1.200       .  T
C407        C408   1.203       .  T
C409        C410   1.344       .  D
C409        H411   1.088   1_565  S
C410        H856   1.086       .  S
H412        C854   1.087       .  S
C413        C414   1.341       .  D
C413        H859   1.086   1_565  S
C414        H416   1.087       .  S
H415        C857   1.087       .  S
C417        C418   1.347   1_545  D
C418        H864   1.086       .  S
H420        C862   1.087       .  S
C421        C422   1.343   1_565  D
C421        H867   1.087       .  S
H423        C865   1.086       .  S
C425        C426   1.343   1_455  D
C425        H427   1.086       .  S
C426       H1316   1.087       .  S
H428       C1314   1.087       .  S
C429        C430   1.348   1_655  D
C429       H1319   1.086       .  S
C430        H432   1.086       .  S
H431       C1317   1.087       .  S
C433        C434   1.200       .  T
C434       C1134   1.440       .  S
C435        C436   1.201       .  T
C437        C438   1.347       .  D
C437        H439   1.087       .  S
C438       H1106   1.086   1_455  S
H440       C1104   1.086       .  S
C441       C1131   1.488       .  S
C441        C442   1.341   1_656  D
C441       H1331   1.086       .  S
H443       C1329   1.086       .  S
N445        C450   1.351       .  A
N445       C1337   1.352       .  A
N445        H477   1.038   1_655  S
N446        C453   1.352       .  A
N446        C454   1.349       .  A
N447       C1340   1.354       .  A
N447        C451   1.351       .  A
N447        H478   1.040       .  S
N448        C455   1.350       .  A
N448        C456   1.351   1_655  A
C449       N1333   1.354       .  A
C449        C457   1.387       .  A
C449        C687   1.416   1_554  A
C450        C466   1.409       .  A
C450        C458   1.387       .  A
C451        C459   1.390       .  A
C451        C468   1.413       .  A
C452       N1335   1.353       .  A
C452        C689   1.406       .  A
C452        C460   1.384       .  A
C453        C465   1.412       .  A
C453        C461   1.386       .  A
C454        C468   1.408       .  A
C454        C462   1.387       .  A
C455        C463   1.387       .  A
C455        C466   1.409       .  A
C456        C464   1.386   1_455  A
C456        C467   1.411   1_554  A
C457       C1346   1.379       .  A
C457        H469   1.082       .  S
C458       C1345   1.376       .  A
C458        H470   1.082       .  S
C459       C1348   1.372       .  A
C459        H471   1.081       .  S
C460       C1347   1.372       .  A
C460        H472   1.082       .  S
C461        C462   1.374       .  A
C461        H473   1.082       .  S
C462        H474   1.083       .  S
C463        C464   1.373       .  A
C463        H475   1.082       .  S
C464        H476   1.082   1_655  S
C465        C671   1.413       .  A
C465       C1551   1.485       .  S
C466        C657   1.443       .  S
C467        C674   1.407       .  A
C467        C659   1.484       .  S
C468       C1544   1.439       .  S
N479        C484   1.354   1_455  A
N479        C483   1.352       .  A
N479        H511   1.040       .  S
N480        C487   1.347       .  A
N480        C488   1.350       .  A
N481        C486   1.347       .  A
N481        C485   1.354       .  A
N481        H512   1.034       .  S
N482        C489   1.352       .  A
N482        C490   1.351       .  A
C483        C491   1.389       .  A
C483        C499   1.413       .  A
C484        C500   1.414       .  A
C484        C492   1.386       .  A
C485        C493   1.388       .  A
C485        C502   1.416       .  A
C486        C501   1.407       .  A
C486        C494   1.386       .  A
C487        C499   1.407       .  A
C487        C495   1.387       .  A
C488        C502   1.413   1_455  A
C488        C496   1.386       .  A
C489        C497   1.386       .  A
C489        C500   1.410       .  A
C490        C498   1.387       .  A
C490        C501   1.412       .  A
C491        C492   1.373   1_455  A
C491        H503   1.082       .  S
C492        H504   1.082       .  S
C493        C494   1.377       .  A
C493        H505   1.082       .  S
C494        H506   1.083       .  S
C495        C496   1.374       .  A
C495        H507   1.082       .  S
C496        H508   1.082       .  S
C497        C498   1.371       .  A
C497        H509   1.082       .  S
C498        H510   1.082       .  S
C499        C655   1.438       .  S
C500        C651   1.492       .  S
C501        C658   1.440       .  S
C502        C647   1.484       .  S
O513       Zn519   2.081       .  S
O513       C1417   1.279       .  A
C514        C643   1.473       .  S
C514        O752   1.280   1_554  A
O515        C528   1.277       .  A
O515       Cd522   2.082       .  S
O516        C978   1.278   1_565  A
O516       Cd525   2.118       .  S
O517        C753   1.278   1_455  A
O517       Cd521   2.077       .  S
O518       Cd521   2.137       .  S
Zn519       O530   2.040       .  S
Zn519       O532   2.014       .  S
Zn519      O1634   1.971       .  S
O520       C1419   1.273       .  A
O520       Cd525   2.057       .  S
Cd521       O523   2.079       .  S
Cd522       O526   2.076       .  S
Cd522       O535   2.125       .  S
Cd522       O524   2.012       .  S
O524      Zn1629   1.964   1_454  S
O524       Cd969   2.010   1_455  S
Cd525       O527   2.064       .  S
Cd525       O968   2.017   1_565  S
O526        C533   1.278   1_554  A
C528        C886   1.475       .  S
C528       O1642   1.276   1_454  A
C529       O1401   1.279   1_455  A
O530        C736   1.277       .  A
C531        C660   1.468       .  S
C531        O739   1.277   1_654  A
C531       O1408   1.272       .  A
O532       C1638   1.276       .  A
C533        C640   1.474       .  S
C534        O960   1.281   1_455  A
C534        O535   1.279       .  A
C534        C552   1.502       .  S
O536       Zn542   2.094       .  S
O536       C1440   1.281       .  A
C537        C635   1.474       .  S
C537        O553   1.277       .  A
O538        C551   1.275       .  A
O538       Cd545   2.066       .  S
O539       C1445   1.282   1_565  A
O539       Cd548   2.146       .  S
O540        C554   1.278   1_455  A
O540       Cd544   2.076       .  S
O541       Cd544   2.131       .  S
Zn542       O553   2.026       .  S
Zn542       O555   2.028       .  S
Zn542      O1435   1.966       .  S
O543       C1442   1.278       .  A
O543       Cd548   2.085       .  S
Cd544       O546   2.105       .  S
Cd545       O549   2.076       .  S
Cd545       O558   2.114       .  S
Cd545       O547   2.018       .  S
O547      Zn1430   1.970   1_455  S
O547       Cd992   2.022   1_455  S
Cd548       O550   2.094       .  S
Cd548       O991   2.026   1_565  S
O549        C556   1.276       .  A
C551        C652   1.470       .  S
C551       O1443   1.277   1_455  A
C552       O1424   1.278   1_455  A
C554        C648   1.479       .  S
C554       O1431   1.279       .  A
O555       C1439   1.277       .  A
C556        C631   1.475       .  S
C557       O1427   1.283       .  A
N559        C564   1.352       .  A
N559        C563   1.356       .  A
N559        H591   1.041       .  S
N560        C567   1.353       .  A
N560        C568   1.350       .  A
N561        C566   1.354       .  A
N561        C565   1.348       .  A
N561        H592   1.036       .  S
N562        C569   1.348       .  A
N562        C570   1.350       .  A
C563        C571   1.385       .  A
C563        C579   1.415   1_554  A
C564        C580   1.413       .  A
C564        C572   1.387       .  A
C565        C573   1.386       .  A
C565        C582   1.407       .  A
C566        C803   1.417       .  A
C566        C574   1.389       .  A
C567        C801   1.408       .  A
C567        C575   1.383       .  A
C568        C582   1.413       .  A
C568        C576   1.387       .  A
C569        C577   1.388       .  A
C569        C580   1.407       .  A
C570        C578   1.386       .  A
C570        C581   1.411       .  A
C571        C572   1.372       .  A
C571        H583   1.082       .  S
C572        H584   1.079       .  S
C573        C574   1.379       .  A
C573        H585   1.082       .  S
C574        H586   1.082       .  S
C575        C576   1.373       .  A
C575        H587   1.082       .  S
C576        H588   1.079       .  S
C577        C578   1.373       .  A
C577        H589   1.083       .  S
C578        H590   1.082       .  S
C579        C789   1.406       .  A
C579        C644   1.493       .  S
C580        C630   1.443       .  S
C581        C788   1.416   1_554  A
C581        C639   1.486       .  S
C582        C628   1.442       .  S
N593        C598   1.357       .  A
N593        C597   1.352       .  A
N593        H625   1.036       .  S
N594        C601   1.350       .  A
N594        C602   1.353       .  A
N595        C600   1.351       .  A
N595        C599   1.357       .  A
N595        H626   1.037       .  S
N596        C603   1.349       .  A
N596        C604   1.347       .  A
C597        C605   1.388       .  A
C597        C613   1.415       .  A
C598        C614   1.417       .  A
C598        C606   1.386       .  A
C599        C607   1.391       .  A
C599        C616   1.425       .  A
C600        C615   1.406       .  A
C600        C608   1.383       .  A
C601        C613   1.414       .  A
C601        C609   1.386       .  A
C602        C616   1.420       .  A
C602        C610   1.389       .  A
C603        C611   1.388       .  A
C603        C614   1.412       .  A
C604        C612   1.385       .  A
C604        C615   1.405       .  A
C605        C606   1.375       .  A
C605        H617   1.082       .  S
C606        H618   1.082       .  S
C607        C608   1.374       .  A
C607        H619   1.081       .  S
C608        H620   1.083       .  S
C609        C610   1.372       .  A
C609        H621   1.083       .  S
C610        H622   1.081       .  S
C611        C612   1.369       .  A
C611        H623   1.082       .  S
C612        H624   1.082       .  S
C613        C627   1.445       .  S
C614        C636   1.487       .  S
C615        C629   1.438       .  S
C616        C632   1.499       .  S
C627        C628   1.203       .  T
C629        C630   1.201       .  T
C631        C632   1.346       .  D
C631        H633   1.086       .  S
C635        C636   1.345       .  D
C636        H638   1.087       .  S
C639        C640   1.343   1_554  D
C639        H863   1.087       .  S
H641        C861   1.086       .  S
C643        C644   1.343   1_554  D
C644        H868   1.087       .  S
H646        C866   1.086       .  S
C647        C648   1.343       .  D
C647        H649   1.086   1_655  S
C648       H1538   1.087       .  S
H650       C1536   1.087       .  S
C651        C652   1.345   1_655  D
C651       H1541   1.087       .  S
C652        H654   1.086       .  S
H653       C1539   1.087       .  S
C655        C656   1.198       .  T
C656       C1356   1.437       .  S
C657        C658   1.202       .  T
C659        C660   1.341   1_456  D
C659        H661   1.087       .  S
C660       H1772   1.086       .  S
H662       C1770   1.087       .  S
C663       C1353   1.482       .  S
C663        C664   1.342       .  D
C663       H1553   1.086   1_455  S
C664        C750   1.476       .  S
C664        H888   1.087       .  S
H665       C1551   1.087       .  S
H666        C886   1.087       .  S
N667        C672   1.349       .  A
N667       C1559   1.352       .  A
N667        H699   1.039   1_655  S
N668        C675   1.351       .  A
N668        C676   1.347       .  A
N669       C1562   1.353       .  A
N669        C673   1.352       .  A
N669        H700   1.040       .  S
N670        C677   1.349       .  A
N670        C678   1.352       .  A
C671       N1555   1.351       .  A
C671        C679   1.388       .  A
C672        C688   1.406       .  A
C672        C680   1.387       .  A
C673        C681   1.389       .  A
C673        C690   1.413       .  A
C674       N1557   1.351       .  A
C674        C682   1.386       .  A
C675        C687   1.413       .  A
C675        C683   1.387       .  A
C676        C690   1.406       .  A
C676        C684   1.386       .  A
C677        C685   1.387       .  A
C677        C688   1.409       .  A
C678        C686   1.385       .  A
C678        C689   1.410   1_655  A
C679       C1568   1.375       .  A
C679        H691   1.082       .  S
C680       C1567   1.377       .  A
C680        H692   1.083       .  S
C681       C1570   1.371       .  A
C681        H693   1.081       .  S
C682       C1569   1.371       .  A
C682        H694   1.082       .  S
C683        C684   1.375       .  A
C683        H695   1.082       .  S
C684        H696   1.083       .  S
C685        C686   1.371       .  A
C685        H697   1.081       .  S
C686        H698   1.082       .  S
C687       C1773   1.487       .  S
C688        C879   1.437       .  S
C689        C881   1.489       .  S
C690       C1766   1.442       .  S
N701        C706   1.354       .  A
N701        C705   1.351       .  A
N701        H733   1.042       .  S
N702        C709   1.348       .  A
N702        C710   1.351       .  A
N703        C708   1.349       .  A
N703        C707   1.354       .  A
N703        H734   1.037       .  S
N704        C711   1.351       .  A
N704        C712   1.349       .  A
C705        C713   1.389       .  A
C705        C721   1.410       .  A
C706        C722   1.413   1_455  A
C706        C714   1.386       .  A
C707        C715   1.387       .  A
C707        C724   1.414       .  A
C708        C723   1.410       .  A
C708        C716   1.387       .  A
C709        C721   1.408       .  A
C709        C717   1.387       .  A
C710        C724   1.413   1_455  A
C710        C718   1.386       .  A
C711        C719   1.385       .  A
C711        C722   1.407       .  A
C712        C720   1.388       .  A
C712        C723   1.410       .  A
C713        C714   1.372       .  A
C713        H725   1.082       .  S
C714        H726   1.082   1_455  S
C715        C716   1.376       .  A
C715        H727   1.082       .  S
C716        H728   1.083       .  S
C717        C718   1.374       .  A
C717        H729   1.082       .  S
C718        H730   1.082       .  S
C719        C720   1.371       .  A
C719        H731   1.082       .  S
C720        H732   1.082       .  S
C721        C877   1.439       .  S
C722        C873   1.491       .  S
C723        C880   1.437       .  S
C724        C869   1.485       .  S
O735       Zn741   2.106       .  S
O735       C1639   1.282       .  A
C736        C865   1.470       .  S
O737        C750   1.276       .  A
O737       Cd744   2.075       .  S
O738       C1200   1.279       .  A
O738       Cd747   2.128       .  S
O739       Cd743   2.071       .  S
O740       Cd743   2.126       .  S
Zn741       O752   2.046       .  S
Zn741       O754   2.044       .  S
Zn741      O1412   1.975   1_556  S
O742       C1641   1.273       .  A
O742       Cd747   2.060       .  S
Cd743       O745   2.081       .  S
Cd744       O748   2.075       .  S
Cd744       O757   2.130       .  S
Cd744       O746   2.019       .  S
O746      Zn1407   1.972   1_455  S
O746      Cd1191   2.012   1_455  S
Cd747       O749   2.078       .  S
Cd747      O1190   2.017   1_565  S
O748        C755   1.278       .  A
C750       O1420   1.278   1_455  A
C751       O1623   1.278   1_455  A
C753        C882   1.470       .  S
C753       O1630   1.274       .  A
O754       C1416   1.280   1_556  A
C755        C862   1.477       .  S
C756       O1182   1.279   1_455  A
C756        O757   1.280       .  A
C756        C774   1.501       .  S
O758       Zn764   2.084       .  S
O758       C1662   1.278       .  A
C759        C857   1.473       .  S
C759        O775   1.276       .  A
O760        C773   1.272       .  A
O760       Cd767   2.055       .  S
O761       C1667   1.281       .  A
O761       Cd770   2.135       .  S
O762        C776   1.279   1_455  A
O762       Cd766   2.080       .  S
O763       Cd766   2.138       .  S
Zn764       O775   2.014       .  S
Zn764       O777   2.047       .  S
Zn764      O1657   1.974       .  S
O765       C1664   1.278       .  A
O765       Cd770   2.085       .  S
Cd766       O768   2.107       .  S
Cd767       O771   2.051       .  S
Cd767       O780   2.104       .  S
Cd767       O769   2.013       .  S
O769      Zn1652   1.965   1_455  S
O769      Cd1214   2.015   1_455  S
Cd770       O772   2.092       .  S
Cd770      O1213   2.021       .  S
O771        C778   1.272       .  A
C773        C874   1.471       .  S
C773       O1665   1.277   1_455  A
C774       O1646   1.280   1_455  A
C776        C870   1.480       .  S
C776       O1653   1.278       .  A
O777       C1661   1.279       .  A
C778        C853   1.467       .  S
C779       O1649   1.283       .  A
N781        C786   1.350       .  A
N781        C785   1.352       .  A
N781        H813   1.042       .  S
N782        C789   1.351       .  A
N782        C790   1.349       .  A
N783        C788   1.353       .  A
N783        C787   1.349       .  A
N783        H814   1.039       .  S
N784        C791   1.346       .  A
N784        C792   1.348       .  A
C785        C793   1.386       .  A
C785        C801   1.411       .  A
C786        C802   1.408       .  A
C786        C794   1.389       .  A
C787        C795   1.385       .  A
C787        C804   1.405       .  A
C788        C796   1.389       .  A
C789        C797   1.385       .  A
C790        C804   1.407       .  A
C790        C798   1.388       .  A
C791        C799   1.386       .  A
C791        C802   1.405       .  A
C792        C800   1.387       .  A
C792        C803   1.413       .  A
C793        C794   1.374       .  A
C793        H805   1.082       .  S
C794        H806   1.082       .  S
C795        C796   1.375       .  A
C795        H807   1.082       .  S
C796        H808   1.082       .  S
C797        C798   1.371       .  A
C797        H809   1.082       .  S
C798        H810   1.082       .  S
C799        C800   1.375       .  A
C799        H811   1.081       .  S
C800        H812   1.082       .  S
C801        C866   1.495       .  S
C802        C852   1.438       .  S
C803        C861   1.484       .  S
C804        C850   1.436       .  S
N815        C820   1.352       .  A
N815        C819   1.350       .  A
N815        H847   1.039       .  S
N816        C823   1.348       .  A
N816        C824   1.350       .  A
N817        C822   1.352       .  A
N817        C821   1.354       .  A
N817        H848   1.039       .  S
N818        C825   1.351       .  A
N818        C826   1.347       .  A
C819        C827   1.387       .  A
C819        C835   1.407       .  A
C820        C836   1.413       .  A
C820        C828   1.387       .  A
C821        C829   1.385       .  A
C821        C838   1.408       .  A
C822        C837   1.413       .  A
C822        C830   1.389       .  A
C823        C835   1.407       .  A
C823        C831   1.387       .  A
C824        C838   1.410       .  A
C824        C832   1.386       .  A
C825        C833   1.386       .  A
C825        C836   1.411       .  A
C826        C834   1.387       .  A
C826        C837   1.406       .  A
C827        C828   1.374       .  A
C827        H839   1.082       .  S
C828        H840   1.082       .  S
C829        C830   1.368       .  A
C829        H841   1.082       .  S
C830        H842   1.079       .  S
C831        C832   1.371       .  A
C831        H843   1.083       .  S
C832        H844   1.082       .  S
C833        C834   1.373       .  A
C833        H845   1.082       .  S
C834        H846   1.083       .  S
C835        C849   1.438       .  S
C836        C858   1.485       .  S
C837        C851   1.438       .  S
C838        C854   1.486       .  S
C849        C850   1.198       .  T
C851        C852   1.198       .  T
C853        C854   1.341       .  D
C853        H855   1.087       .  S
C857        C858   1.344       .  D
C858        H860   1.087       .  S
C861        C862   1.344       .  D
C865        C866   1.345       .  D
C869        C870   1.344       .  D
C869        H871   1.086   1_655  S
C870       H1760   1.087       .  S
H872       C1758   1.087       .  S
C873        C874   1.343   1_655  D
C873       H1763   1.087       .  S
C874        H876   1.086       .  S
H875       C1761   1.087       .  S
C877        C878   1.199       .  T
C878       C1578   1.438       .  S
C879        C880   1.198       .  T
C881        C882   1.342   1_455  D
C881        H883   1.087       .  S
C882       H1550   1.086       .  S
H884       C1548   1.086       .  S
C885       C1575   1.480       .  S
C885        C886   1.342   1_556  D
C885       H1775   1.086   1_455  S
H887       C1773   1.086       .  S
N889        C894   1.350       .  A
N889        H921   1.038       .  S
N890        C897   1.352       .  A
N890        C898   1.347       .  A
N891        C895   1.352       .  A
N891        H922   1.042       .  S
N892        C899   1.349       .  A
N892        C900   1.351       .  A
C893        C901   1.387       .  A
C893       C1131   1.416   1_554  A
C894        C910   1.406       .  A
C894        C902   1.386       .  A
C895        C903   1.390       .  A
C895        C912   1.415       .  A
C896       C1133   1.410       .  A
C896        C904   1.386       .  A
C897        C909   1.412       .  A
C897        C905   1.386       .  A
C898        C912   1.408       .  A
C898        C906   1.389       .  A
C899        C907   1.388       .  A
C899        C910   1.407       .  A
C900        C908   1.384       .  A
C900        C911   1.406   1_554  A
C901        H913   1.082       .  S
C902        H914   1.083       .  S
C903        H915   1.082       .  S
C904        H916   1.082       .  S
C905        C906   1.374       .  A
C905        H917   1.082       .  S
C906        H918   1.083       .  S
C907        C908   1.366       .  A
C907        H919   1.079       .  S
C908        H920   1.082       .  S
C909       C1115   1.416   1_455  A
C910       C1101   1.437       .  S
C911       C1118   1.411       .  A
C911       C1103   1.490       .  S
N923        C928   1.355       .  A
N923        C927   1.351       .  A
N923        H955   1.042       .  S
N924        C931   1.348       .  A
N924        C932   1.350       .  A
N925        C930   1.351       .  A
N925        C929   1.354       .  A
N925        H956   1.037       .  S
N926        C933   1.351       .  A
N926        C934   1.348       .  A
C927        C935   1.389       .  A
C927        C943   1.411       .  A
C928        C944   1.410       .  A
C928        C936   1.384       .  A
C929        C937   1.387       .  A
C929        C946   1.416       .  A
C930        C945   1.411       .  A
C930        C938   1.387       .  A
C931        C943   1.407       .  A
C931        C939   1.387       .  A
C932        C946   1.413       .  A
C932        C940   1.387       .  A
C933        C941   1.385       .  A
C933        C944   1.405       .  A
C934        C942   1.389       .  A
C934        C945   1.408       .  A
C935        C936   1.370       .  A
C935        H947   1.080       .  S
C936        H948   1.082       .  S
C937        C938   1.376       .  A
C937        H949   1.082       .  S
C938        H950   1.083       .  S
C939        C940   1.375       .  A
C939        H951   1.082       .  S
C940        H952   1.082       .  S
C941        C942   1.370       .  A
C941        H953   1.082       .  S
C942        H954   1.083       .  S
C943       C1099   1.438       .  S
C944       C1095   1.491       .  S
C945       C1102   1.438       .  S
C946       C1091   1.485       .  S
O957       Zn963   2.110       .  S
C958       C1087   1.474       .  S
C958       O1196   1.277   1_564  A
C958       O1415   1.275       .  A
O959        C972   1.276       .  A
O959       Cd966   2.070       .  S
O960       Cd969   2.135       .  S
O961       C1197   1.277       .  A
O961       Cd965   2.076       .  S
O962       C1417   1.277       .  A
O962       Cd965   2.110       .  S
Zn963       O974   2.048       .  S
Zn963       O976   2.050       .  S
O964       Cd969   2.085       .  S
Cd965       O967   2.077       .  S
Cd965      O1634   2.011       .  S
Cd966       O970   2.074       .  S
Cd966       O979   2.130       .  S
Cd966       O968   2.016       .  S
O967       C1643   1.276       .  A
O968      Cd1631   2.012   1_544  S
Cd969       O971   2.077       .  S
O970        C977   1.276   1_554  A
O971       C1402   1.278       .  A
C972       C1330   1.479       .  S
C973       O1406   1.281   1_545  A
C973       C1445   1.503       .  S
O974       C1180   1.280       .  A
C975       C1104   1.467       .  S
C975       O1183   1.274   1_554  A
C977       C1084   1.471       .  S
C977       O1633   1.275   1_545  A
C978        O979   1.279       .  A
C978        C996   1.500       .  S
O980       Zn986   2.045       .  S
C981       C1079   1.477       .  S
C981        O997   1.271   1_565  A
C981       O1438   1.281       .  A
O982        C995   1.275       .  A
O982       Cd989   2.067       .  S
O983       Cd992   2.138       .  S
O984        C998   1.278       .  A
O984       Cd988   2.078       .  S
O985       C1440   1.280       .  A
O985       Cd988   2.126       .  S
Zn986       O997   2.004       .  S
Zn986       O999   2.008       .  S
O987       Cd992   2.083       .  S
Cd988       O990   2.081       .  S
Cd988      O1435   2.018       .  S
Cd989       O993   2.048       .  S
Cd989      O1002   2.113       .  S
Cd989       O991   2.010       .  S
O990       C1444   1.278       .  A
O991      Cd1432   2.024   1_545  S
Cd992       O994   2.091       .  S
O993       C1000   1.272   1_545  A
O994       C1425   1.278       .  A
C995       C1096   1.471       .  S
C996       O1429   1.281   1_545  A
C998       C1092   1.478       .  S
C1000      C1075   1.472       .  S
C1000      O1434   1.280       .  A
C1001      O1446   1.277       .  A
C1001      C1417   1.494       .  S
O1002      C1445   1.277       .  A
N1003      C1008   1.348       .  A
N1003      C1007   1.353       .  A
N1003      H1035   1.038       .  S
N1004      C1011   1.348   1_545  A
N1004      C1012   1.347   1_545  A
N1005      C1010   1.352       .  A
N1005      C1009   1.350   1_545  A
N1005      H1036   1.042       .  S
N1006      C1013   1.349       .  A
N1006      C1014   1.351       .  A
C1007      C1015   1.390       .  A
C1007      C1023   1.418   1_554  A
C1008      C1024   1.402       .  A
C1008      C1016   1.383       .  A
C1009      C1017   1.387   1_565  A
C1009      C1026   1.407       .  A
C1010      C1247   1.412       .  A
C1010      C1018   1.387       .  A
C1011      C1245   1.410   1_565  A
C1011      C1019   1.386       .  A
C1012      C1026   1.405       .  A
C1012      C1020   1.386       .  A
C1013      C1021   1.386       .  A
C1013      C1024   1.409       .  A
C1014      C1022   1.386       .  A
C1014      C1025   1.410       .  A
C1015      C1016   1.375       .  A
C1015      H1027   1.082       .  S
C1016      H1028   1.083       .  S
C1017      C1018   1.373       .  A
C1017      H1029   1.082       .  S
C1018      H1030   1.082       .  S
C1019      C1020   1.376       .  A
C1019      H1031   1.082       .  S
C1020      H1032   1.082       .  S
C1021      C1022   1.373       .  A
C1021      H1033   1.083       .  S
C1022      H1034   1.082       .  S
C1023      C1233   1.413   1_545  A
C1023      C1088   1.486       .  S
C1024      C1074   1.439       .  S
C1025      C1232   1.413   1_554  A
C1025      C1083   1.494       .  S
C1026      C1072   1.439       .  S
N1037      C1042   1.353       .  A
N1037      C1041   1.347       .  A
N1037      H1069   1.039       .  S
N1038      C1045   1.348       .  A
N1038      C1046   1.350       .  A
N1039      C1044   1.349   1_565  A
N1039      C1043   1.354       .  A
N1039      H1070   1.039   1_565  S
N1040      C1047   1.352       .  A
N1040      C1048   1.348       .  A
C1041      C1049   1.384       .  A
C1041      C1057   1.400       .  A
C1042      C1058   1.415       .  A
C1042      C1050   1.390       .  A
C1043      C1051   1.384       .  A
C1043      C1060   1.408       .  A
C1044      C1059   1.413       .  A
C1044      C1052   1.389       .  A
C1045      C1057   1.405       .  A
C1045      C1053   1.386       .  A
C1046      C1060   1.410       .  A
C1046      C1054   1.387       .  A
C1047      C1055   1.387       .  A
C1047      C1058   1.418   1_545  A
C1048      C1056   1.386       .  A
C1048      C1059   1.408       .  A
C1049      C1050   1.375       .  A
C1049      H1061   1.082       .  S
C1050      H1062   1.082       .  S
C1051      C1052   1.374   1_565  A
C1051      H1063   1.082       .  S
C1052      H1064   1.079       .  S
C1053      C1054   1.376       .  A
C1053      H1065   1.082       .  S
C1054      H1066   1.082       .  S
C1055      C1056   1.378       .  A
C1055      H1067   1.082       .  S
C1056      H1068   1.083       .  S
C1057      C1071   1.435       .  S
C1058      C1080   1.496       .  S
C1059      C1073   1.442       .  S
C1060      C1076   1.483       .  S
C1071      C1072   1.199       .  T
C1073      C1074   1.201       .  T
C1075      C1076   1.340       .  D
C1075      H1077   1.088   1_565  S
C1076      H1522   1.086       .  S
H1078      C1520   1.087       .  S
C1079      C1080   1.341       .  D
C1079      H1525   1.086   1_565  S
C1080      H1082   1.087       .  S
H1081      C1523   1.087       .  S
C1083      C1084   1.346   1_554  D
C1083      H1307   1.086       .  S
C1084      H1530   1.086   1_545  S
H1085      C1305   1.086       .  S
H1086      C1528   1.087       .  S
C1087      C1088   1.344   1_564  D
C1087      H1533   1.087       .  S
C1088      H1312   1.087       .  S
H1089      C1531   1.085       .  S
H1090      C1310   1.086       .  S
C1091      C1092   1.344       .  D
C1091      H1093   1.086       .  S
C1095      C1096   1.344       .  D
C1096      H1098   1.086       .  S
C1099      C1100   1.199       .  T
C1101      C1102   1.199       .  T
C1103      C1104   1.347   1_556  D
C1103      H1105   1.086       .  S
C1107      C1108   1.343       .  D
C1108      C1194   1.478       .  S
C1108      H1332   1.087       .  S
H1110      C1330   1.087       .  S
N1111      C1116   1.349       .  A
N1111      H1143   1.037       .  S
N1112      C1119   1.351       .  A
N1112      C1120   1.348       .  A
N1113      C1117   1.352       .  A
N1113      H1144   1.040       .  S
N1114      C1121   1.352       .  A
N1114      C1122   1.355       .  A
C1115      C1123   1.388       .  A
C1116      C1132   1.409       .  A
C1116      C1124   1.387       .  A
C1117      C1125   1.390       .  A
C1117      C1134   1.414       .  A
C1118      C1126   1.386       .  A
C1119      C1131   1.412   1_455  A
C1119      C1127   1.386       .  A
C1120      C1134   1.409       .  A
C1120      C1128   1.388       .  A
C1121      C1129   1.387       .  A
C1121      C1132   1.415       .  A
C1122      C1130   1.384       .  A
C1122      C1133   1.414       .  A
C1123      H1135   1.082       .  S
C1124      H1136   1.083       .  S
C1125      H1137   1.082       .  S
C1126      H1138   1.082       .  S
C1127      C1128   1.373       .  A
C1127      H1139   1.082       .  S
C1128      H1140   1.083       .  S
C1129      C1130   1.370       .  A
C1129      H1141   1.079       .  S
C1130      H1142   1.082       .  S
C1132      C1323   1.444       .  S
C1133      C1325   1.494       .  S
N1145      C1150   1.354       .  A
N1145      C1149   1.352       .  A
N1145      H1177   1.040       .  S
N1146      C1153   1.349       .  A
N1146      C1154   1.352       .  A
N1147      C1152   1.350       .  A
N1147      C1151   1.355       .  A
N1147      H1178   1.038       .  S
N1148      C1155   1.353       .  A
N1148      C1156   1.352       .  A
C1149      C1157   1.389       .  A
C1149      C1165   1.415       .  A
C1150      C1166   1.413       .  A
C1150      C1158   1.385       .  A
C1151      C1159   1.387       .  A
C1151      C1168   1.417       .  A
C1152      C1167   1.409       .  A
C1152      C1160   1.386       .  A
C1153      C1165   1.411       .  A
C1153      C1161   1.387       .  A
C1154      C1168   1.415       .  A
C1154      C1162   1.386       .  A
C1155      C1163   1.387       .  A
C1155      C1166   1.412       .  A
C1156      C1164   1.387       .  A
C1156      C1167   1.410       .  A
C1157      C1158   1.370       .  A
C1157      H1169   1.079       .  S
C1158      H1170   1.082       .  S
C1159      C1160   1.376       .  A
C1159      H1171   1.082       .  S
C1160      H1172   1.082       .  S
C1161      C1162   1.377       .  A
C1161      H1173   1.082       .  S
C1162      H1174   1.082       .  S
C1163      C1164   1.371       .  A
C1163      H1175   1.082       .  S
C1164      H1176   1.083       .  S
C1165      C1321   1.445       .  S
C1166      C1317   1.491       .  S
C1167      C1324   1.444       .  S
C1168      C1313   1.492       .  S
O1179     Zn1185   2.085       .  S
C1180      C1309   1.480       .  S
C1180      O1637   1.276   1_545  A
O1181      C1194   1.275       .  A
O1181     Cd1188   2.067       .  S
O1182     Cd1191   2.126       .  S
O1183     Cd1187   2.053       .  S
O1184      C1639   1.277       .  A
O1184     Cd1187   2.114       .  S
Zn1185     O1196   2.028       .  S
Zn1185     O1198   2.057       .  S
O1186     Cd1191   2.076       .  S
Cd1187     O1189   2.072       .  S
Cd1187     O1412   2.015   1_556  S
Cd1188     O1192   2.073       .  S
Cd1188     O1201   2.114       .  S
Cd1188     O1190   2.017       .  S
O1189      C1421   1.275       .  A
O1190     Cd1409   2.010   1_545  S
Cd1191     O1193   2.066       .  S
O1192      C1199   1.276       .  A
O1193      C1624   1.275       .  A
C1195      O1628   1.278       .  A
C1195      C1667   1.500       .  S
C1197      C1326   1.476       .  S
C1199      C1306   1.474       .  S
C1199      O1411   1.277   1_545  A
C1200      O1201   1.277   1_565  A
C1200      C1218   1.496       .  S
O1202     Zn1208   2.056       .  S
C1203      C1301   1.473       .  S
C1203      O1219   1.271   1_565  A
C1203      O1660   1.280       .  A
O1204      C1217   1.275       .  A
O1204     Cd1211   2.076       .  S
O1205     Cd1214   2.123       .  S
O1206      C1220   1.280       .  A
O1206     Cd1210   2.102       .  S
O1207      C1662   1.278       .  A
O1207     Cd1210   2.118       .  S
Zn1208     O1219   1.998       .  S
Zn1208     O1221   2.008       .  S
O1209     Cd1214   2.076       .  S
Cd1210     O1212   2.072       .  S
Cd1210     O1657   2.025       .  S
Cd1211     O1215   2.063       .  S
Cd1211     O1224   2.117       .  S
Cd1211     O1213   2.008   1_545  S
O1212      C1666   1.276       .  A
O1213     Cd1654   2.019       .  S
Cd1214     O1216   2.087       .  S
O1215      C1222   1.275   1_545  A
O1216      C1647   1.278       .  A
C1217      C1318   1.471       .  S
C1218      O1651   1.282       .  A
C1220      C1314   1.483       .  S
C1222      C1297   1.475       .  S
C1222      O1656   1.281       .  A
C1223      O1668   1.278       .  A
C1223      C1639   1.503       .  S
O1224      C1667   1.278   1_545  A
N1225      C1230   1.347       .  A
N1225      C1229   1.355       .  A
N1225      H1257   1.036       .  S
N1226      C1233   1.350       .  A
N1226      C1234   1.348       .  A
N1227      C1232   1.354   1_565  A
N1227      C1231   1.351       .  A
N1227      H1258   1.042       .  S
N1228      C1235   1.351       .  A
N1228      C1236   1.355       .  A
C1229      C1237   1.388       .  A
C1229      C1245   1.419       .  A
C1230      C1246   1.406       .  A
C1230      C1238   1.386       .  A
C1231      C1239   1.387       .  A
C1231      C1248   1.408       .  A
C1232      C1240   1.386       .  A
C1233      C1241   1.387       .  A
C1234      C1248   1.408       .  A
C1234      C1242   1.387       .  A
C1235      C1243   1.388       .  A
C1235      C1246   1.414       .  A
C1236      C1244   1.385       .  A
C1236      C1247   1.413       .  A
C1237      C1238   1.378       .  A
C1237      H1249   1.082       .  S
C1238      H1250   1.083       .  S
C1239      C1240   1.372   1_565  A
C1239      H1251   1.082       .  S
C1240      H1252   1.082       .  S
C1241      C1242   1.376       .  A
C1241      H1253   1.082       .  S
C1242      H1254   1.082       .  S
C1243      C1244   1.374       .  A
C1243      H1255   1.083       .  S
C1244      H1256   1.082       .  S
C1245      C1310   1.488       .  S
C1246      C1296   1.439       .  S
C1247      C1305   1.498       .  S
C1248      C1294   1.443       .  S
N1259      C1264   1.352       .  A
N1259      C1263   1.346       .  A
N1259      H1291   1.040       .  S
N1260      C1267   1.350       .  A
N1260      C1268   1.352       .  A
N1261      C1266   1.350   1_565  A
N1261      C1265   1.354       .  A
N1261      H1292   1.041       .  S
N1262      C1269   1.352       .  A
N1262      C1270   1.349       .  A
C1263      C1271   1.384       .  A
C1263      C1279   1.400       .  A
C1264      C1280   1.415       .  A
C1264      C1272   1.390       .  A
C1265      C1273   1.384       .  A
C1265      C1282   1.409       .  A
C1266      C1281   1.413       .  A
C1266      C1274   1.389       .  A
C1267      C1279   1.408       .  A
C1267      C1275   1.386       .  A
C1268      C1282   1.410       .  A
C1268      C1276   1.385       .  A
C1269      C1277   1.388       .  A
C1269      C1280   1.419   1_545  A
C1270      C1278   1.385       .  A
C1270      C1281   1.408       .  A
C1271      C1272   1.375       .  A
C1271      H1283   1.083       .  S
C1272      H1284   1.082       .  S
C1273      C1274   1.373   1_565  A
C1273      H1285   1.083       .  S
C1274      H1286   1.078       .  S
C1275      C1276   1.375       .  A
C1275      H1287   1.082       .  S
C1276      H1288   1.082       .  S
C1277      C1278   1.376       .  A
C1277      H1289   1.082       .  S
C1278      H1290   1.082       .  S
C1279      C1293   1.437       .  S
C1280      C1302   1.493       .  S
C1281      C1295   1.443       .  S
C1282      C1298   1.485       .  S
C1293      C1294   1.201       .  T
C1295      C1296   1.202       .  T
C1297      C1298   1.342       .  D
C1297      H1299   1.088   1_565  S
C1298      H1744   1.086       .  S
H1300      C1742   1.087       .  S
C1301      C1302   1.339       .  D
C1301      H1747   1.086       .  S
C1302      H1304   1.087       .  S
H1303      C1745   1.087       .  S
C1305      C1306   1.350       .  D
C1306      H1752   1.086   1_545  S
H1308      C1750   1.087       .  S
C1309      C1310   1.343       .  D
C1309      H1755   1.087   1_545  S
H1311      C1753   1.086       .  S
C1313      C1314   1.344       .  D
C1313      H1315   1.086       .  S
C1317      C1318   1.346       .  D
C1318      H1320   1.086       .  S
C1321      C1322   1.203       .  T
C1323      C1324   1.203       .  T
C1325      C1326   1.344       .  D
C1325      H1327   1.087       .  S
C1329      C1330   1.344   1_556  D
N1333      C1338   1.351       .  A
N1333      H1365   1.039       .  S
N1334      C1341   1.349       .  A
N1334      C1342   1.346       .  A
N1335      C1339   1.351       .  A
N1335      H1366   1.041       .  S
N1336      C1343   1.350       .  A
N1336      C1344   1.352       .  A
C1337      C1345   1.387       .  A
C1337      C1575   1.414   1_654  A
C1338      C1354   1.410       .  A
C1338      C1346   1.387       .  A
C1339      C1347   1.390       .  A
C1339      C1356   1.412       .  A
C1340      C1577   1.408       .  A
C1340      C1348   1.385       .  A
C1341      C1353   1.409       .  A
C1341      C1349   1.386       .  A
C1342      C1356   1.405       .  A
C1342      C1350   1.387       .  A
C1343      C1351   1.388       .  A
C1343      C1354   1.409       .  A
C1344      C1352   1.385       .  A
C1344      C1355   1.411   1_554  A
C1345      H1357   1.082       .  S
C1346      H1358   1.082       .  S
C1347      H1359   1.081       .  S
C1348      H1360   1.082       .  S
C1349      C1350   1.374       .  A
C1349      H1361   1.082       .  S
C1350      H1362   1.083       .  S
C1351      C1352   1.370       .  A
C1351      H1363   1.082       .  S
C1352      H1364   1.082       .  S
C1353      C1559   1.413   1_455  A
C1354      C1545   1.442       .  S
C1355      C1562   1.409       .  A
C1355      C1547   1.487       .  S
N1367      C1372   1.355       .  A
N1367      C1371   1.352       .  A
N1367      H1399   1.041       .  S
N1368      C1375   1.347       .  A
N1368      C1376   1.350       .  A
N1369      C1374   1.349       .  A
N1369      C1373   1.355       .  A
N1369      H1400   1.034       .  S
N1370      C1377   1.351       .  A
N1370      C1378   1.350       .  A
C1371      C1379   1.389       .  A
C1371      C1387   1.413       .  A
C1372      C1388   1.414       .  A
C1372      C1380   1.386       .  A
C1373      C1381   1.388       .  A
C1373      C1390   1.419       .  A
C1374      C1389   1.412       .  A
C1374      C1382   1.386       .  A
C1375      C1387   1.408       .  A
C1375      C1383   1.387       .  A
C1376      C1390   1.414       .  A
C1376      C1384   1.387       .  A
C1377      C1385   1.384       .  A
C1377      C1388   1.405       .  A
C1378      C1386   1.389       .  A
C1378      C1389   1.411       .  A
C1379      C1380   1.372       .  A
C1379      H1391   1.081       .  S
C1380      H1392   1.082       .  S
C1381      C1382   1.378       .  A
C1381      H1393   1.082       .  S
C1382      H1394   1.082       .  S
C1383      C1384   1.374       .  A
C1383      H1395   1.082       .  S
C1384      H1396   1.082       .  S
C1385      C1386   1.369       .  A
C1385      H1397   1.082       .  S
C1386      H1398   1.082       .  S
C1387      C1543   1.439       .  S
C1388      C1539   1.489       .  S
C1389      C1546   1.441       .  S
C1390      C1535   1.485       .  S
O1401     Zn1407   2.086       .  S
C1402      C1531   1.471       .  S
C1402      O1640   1.275   1_554  A
O1403      C1416   1.277       .  A
O1403     Cd1410   2.081       .  S
O1404     Cd1413   2.107       .  S
O1405      C1641   1.277       .  A
O1405     Cd1409   2.079       .  S
O1406     Cd1409   2.131       .  S
Zn1407     O1418   2.032       .  S
Zn1407     O1420   2.031       .  S
O1408     Cd1413   2.057       .  S
Cd1409     O1411   2.078       .  S
Cd1410     O1414   2.084       .  S
Cd1410     O1423   2.138       .  S
Cd1410     O1412   2.019       .  S
Cd1413     O1415   2.071       .  S
O1414      C1421   1.278   1_554  A
C1416      C1774   1.481       .  S
O1418      C1624   1.277       .  A
C1419      C1548   1.468       .  S
C1419      O1627   1.277   1_554  A
C1421      C1528   1.478       .  S
C1422      O1423   1.281       .  A
C1422      C1440   1.503       .  S
O1424     Zn1430   2.081       .  S
C1425      C1523   1.474       .  S
C1425      O1441   1.275       .  A
O1426      C1439   1.271       .  A
O1426     Cd1433   2.048       .  S
O1427     Cd1436   2.151       .  S
O1428      C1442   1.279       .  A
O1428     Cd1432   2.077       .  S
O1429     Cd1432   2.144       .  S
Zn1430     O1441   2.009       .  S
Zn1430     O1443   2.025       .  S
O1431     Cd1436   2.089       .  S
Cd1432     O1434   2.096       .  S
Cd1433     O1437   2.050       .  S
Cd1433     O1446   2.114       .  S
Cd1433     O1435   2.011       .  S
Cd1436     O1438   2.105       .  S
O1437      C1444   1.271       .  A
C1439      C1540   1.467       .  S
C1442      C1536   1.480       .  S
C1444      C1519   1.467       .  S
N1447      C1452   1.349       .  A
N1447      C1451   1.352       .  A
N1447      H1479   1.043   1_554  S
N1448      C1455   1.351       .  A
N1448      C1456   1.349       .  A
N1449      C1454   1.354       .  A
N1449      C1453   1.347       .  A
N1449      H1480   1.039       .  S
N1450      C1457   1.347       .  A
N1450      C1458   1.348       .  A
C1451      C1459   1.385       .  A
C1451      C1467   1.408   1_554  A
C1452      C1468   1.408       .  A
C1452      C1460   1.389       .  A
C1453      C1461   1.386       .  A
C1453      C1470   1.405       .  A
C1454      C1691   1.416       .  A
C1454      C1462   1.388       .  A
C1455      C1689   1.409       .  A
C1455      C1463   1.386       .  A
C1456      C1470   1.410       .  A
C1456      C1464   1.388       .  A
C1457      C1465   1.386       .  A
C1457      C1468   1.406       .  A
C1458      C1466   1.387       .  A
C1458      C1469   1.413       .  A
C1459      C1460   1.371       .  A
C1459      H1471   1.082       .  S
C1460      H1472   1.082       .  S
C1461      C1462   1.375       .  A
C1461      H1473   1.083       .  S
C1462      H1474   1.082       .  S
C1463      C1464   1.375       .  A
C1463      H1475   1.082       .  S
C1464      H1476   1.082       .  S
C1465      C1466   1.376       .  A
C1465      H1477   1.082       .  S
C1466      H1478   1.082       .  S
C1467      C1677   1.409       .  A
C1467      C1532   1.498       .  S
C1468      C1518   1.438       .  S
C1469      C1676   1.419   1_554  A
C1469      C1527   1.485       .  S
C1470      C1516   1.436       .  S
N1481      C1486   1.352       .  A
N1481      C1485   1.350       .  A
N1481      H1513   1.033       .  S
N1482      C1489   1.349       .  A
N1482      C1490   1.349       .  A
N1483      C1488   1.352       .  A
N1483      C1487   1.355       .  A
N1483      H1514   1.036       .  S
N1484      C1491   1.351       .  A
N1484      C1492   1.348       .  A
C1485      C1493   1.387       .  A
C1485      C1501   1.404       .  A
C1486      C1502   1.412       .  A
C1486      C1494   1.388       .  A
C1487      C1495   1.384       .  A
C1487      C1504   1.407       .  A
C1488      C1503   1.412       .  A
C1488      C1496   1.390       .  A
C1489      C1501   1.407       .  A
C1489      C1497   1.387       .  A
C1490      C1504   1.410       .  A
C1490      C1498   1.386       .  A
C1491      C1499   1.386       .  A
C1491      C1502   1.412       .  A
C1492      C1500   1.387       .  A
C1492      C1503   1.407       .  A
C1493      C1494   1.374       .  A
C1493      H1505   1.083       .  S
C1494      H1506   1.082       .  S
C1495      C1496   1.367       .  A
C1495      H1507   1.082       .  S
C1496      H1508   1.078       .  S
C1497      C1498   1.374       .  A
C1497      H1509   1.083       .  S
C1498      H1510   1.082       .  S
C1499      C1500   1.375       .  A
C1499      H1511   1.082       .  S
C1500      H1512   1.083       .  S
C1501      C1515   1.437       .  S
C1502      C1524   1.485       .  S
C1503      C1517   1.438       .  S
C1504      C1520   1.485       .  S
C1515      C1516   1.198       .  T
C1517      C1518   1.199       .  T
C1519      C1520   1.339       .  D
C1519      H1521   1.087       .  S
C1523      C1524   1.346       .  D
C1524      H1526   1.087       .  S
C1527      C1528   1.342   1_554  D
C1527      H1751   1.086       .  S
H1529      C1749   1.086       .  S
C1531      C1532   1.350   1_554  D
C1532      H1756   1.086       .  S
H1534      C1754   1.086       .  S
C1535      C1536   1.344       .  D
C1535      H1537   1.086       .  S
C1539      C1540   1.341       .  D
C1540      H1542   1.086       .  S
C1543      C1544   1.199       .  T
C1545      C1546   1.201       .  T
C1547      C1548   1.342   1_556  D
C1547      H1549   1.087       .  S
C1551      C1552   1.346       .  D
C1552      C1638   1.477       .  S
C1552      H1776   1.087       .  S
H1554      C1774   1.087       .  S
N1555      C1560   1.350       .  A
N1555      H1587   1.039       .  S
N1556      C1563   1.350       .  A
N1556      C1564   1.349       .  A
N1557      C1561   1.351       .  A
N1557      H1588   1.040       .  S
N1558      C1565   1.349       .  A
N1558      C1566   1.350       .  A
C1559      C1567   1.387       .  A
C1560      C1576   1.406       .  A
C1560      C1568   1.386       .  A
C1561      C1569   1.389       .  A
C1561      C1578   1.410       .  A
C1562      C1570   1.385       .  A
C1563      C1575   1.410       .  A
C1563      C1571   1.387       .  A
C1564      C1578   1.406       .  A
C1564      C1572   1.386       .  A
C1565      C1573   1.386       .  A
C1565      C1576   1.407       .  A
C1566      C1574   1.386       .  A
C1566      C1577   1.411       .  A
C1567      H1579   1.082       .  S
C1568      H1580   1.082       .  S
C1569      H1581   1.081       .  S
C1570      H1582   1.082       .  S
C1571      C1572   1.373       .  A
C1571      H1583   1.082       .  S
C1572      H1584   1.082       .  S
C1573      C1574   1.372       .  A
C1573      H1585   1.082       .  S
C1574      H1586   1.082       .  S
C1576      C1767   1.440       .  S
C1577      C1769   1.488       .  S
N1589      C1594   1.355       .  A
N1589      C1593   1.353       .  A
N1589      H1621   1.041       .  S
N1590      C1597   1.347       .  A
N1590      C1598   1.350       .  A
N1591      C1596   1.347       .  A
N1591      C1595   1.353       .  A
N1591      H1622   1.034       .  S
N1592      C1599   1.352       .  A
N1592      C1600   1.351       .  A
C1593      C1601   1.388       .  A
C1593      C1609   1.413       .  A
C1594      C1610   1.417       .  A
C1594      C1602   1.386       .  A
C1595      C1603   1.388       .  A
C1595      C1612   1.415       .  A
C1596      C1611   1.406       .  A
C1596      C1604   1.387       .  A
C1597      C1609   1.407       .  A
C1597      C1605   1.387       .  A
C1598      C1612   1.412       .  A
C1598      C1606   1.386       .  A
C1599      C1607   1.385       .  A
C1599      C1610   1.409       .  A
C1600      C1608   1.388       .  A
C1600      C1611   1.411       .  A
C1601      C1602   1.376       .  A
C1601      H1613   1.082       .  S
C1602      H1614   1.082       .  S
C1603      C1604   1.377       .  A
C1603      H1615   1.082       .  S
C1604      H1616   1.083       .  S
C1605      C1606   1.375       .  A
C1605      H1617   1.082       .  S
C1606      H1618   1.082       .  S
C1607      C1608   1.372       .  A
C1607      H1619   1.082       .  S
C1608      H1620   1.082       .  S
C1609      C1765   1.443       .  S
C1610      C1761   1.497       .  S
C1611      C1768   1.438       .  S
C1612      C1757   1.482       .  S
O1623     Zn1629   2.076       .  S
C1624      C1753   1.475       .  S
O1625      C1638   1.278       .  A
O1625     Cd1632   2.094       .  S
O1626     Cd1635   2.122       .  S
O1627     Cd1631   2.074       .  S
O1628     Cd1631   2.119       .  S
Zn1629     O1640   2.019       .  S
Zn1629     O1642   2.010       .  S
O1630     Cd1635   2.062       .  S
Cd1631     O1633   2.067       .  S
Cd1632     O1636   2.090       .  S
Cd1632     O1645   2.121       .  S
Cd1632     O1634   2.020       .  S
Cd1635     O1637   2.075       .  S
O1636      C1643   1.279       .  A
C1641      C1770   1.469       .  S
C1643      C1750   1.479       .  S
C1644      O1645   1.279       .  A
C1644      C1662   1.497       .  S
O1646     Zn1652   2.088       .  S
C1647      C1745   1.480       .  S
C1647      O1663   1.278       .  A
O1648      C1661   1.275       .  A
O1648     Cd1655   2.068       .  S
O1649     Cd1658   2.145       .  S
O1650      C1664   1.278       .  A
O1650     Cd1654   2.070       .  S
O1651     Cd1654   2.142       .  S
Zn1652     O1663   2.028       .  S
Zn1652     O1665   2.030       .  S
O1653     Cd1658   2.087       .  S
Cd1654     O1656   2.105       .  S
Cd1655     O1659   2.079       .  S
Cd1655     O1668   2.124       .  S
Cd1655     O1657   2.017       .  S
Cd1658     O1660   2.096       .  S
O1659      C1666   1.278       .  A
C1661      C1762   1.477       .  S
C1664      C1758   1.477       .  S
C1666      C1741   1.471       .  S
N1669      C1674   1.353       .  A
N1669      C1673   1.356       .  A
N1669      H1701   1.043       .  S
N1670      C1677   1.354       .  A
N1670      C1678   1.349       .  A
N1671      C1676   1.355       .  A
N1671      C1675   1.349       .  A
N1671      H1702   1.037       .  S
N1672      C1679   1.347       .  A
N1672      C1680   1.350       .  A
C1673      C1681   1.385       .  A
C1673      C1689   1.415       .  A
C1674      C1690   1.414       .  A
C1674      C1682   1.387       .  A
C1675      C1683   1.386       .  A
C1675      C1692   1.410       .  A
C1676      C1684   1.389       .  A
C1677      C1685   1.383       .  A
C1678      C1692   1.414       .  A
C1678      C1686   1.388       .  A
C1679      C1687   1.387       .  A
C1679      C1690   1.405       .  A
C1680      C1688   1.385       .  A
C1680      C1691   1.410       .  A
C1681      C1682   1.373       .  A
C1681      H1693   1.082       .  S
C1682      H1694   1.079       .  S
C1683      C1684   1.378       .  A
C1683      H1695   1.083       .  S
C1684      H1696   1.082       .  S
C1685      C1686   1.374       .  A
C1685      H1697   1.082       .  S
C1686      H1698   1.078       .  S
C1687      C1688   1.375       .  A
C1687      H1699   1.083       .  S
C1688      H1700   1.082       .  S
C1689      C1754   1.496       .  S
C1690      C1740   1.444       .  S
C1691      C1749   1.489       .  S
C1692      C1738   1.441       .  S
N1703      C1708   1.357       .  A
N1703      C1707   1.352       .  A
N1703      H1735   1.036       .  S
N1704      C1711   1.349       .  A
N1704      C1712   1.351       .  A
N1705      C1710   1.351       .  A
N1705      C1709   1.356       .  A
N1705      H1736   1.040       .  S
N1706      C1713   1.350       .  A
N1706      C1714   1.347       .  A
C1707      C1715   1.386       .  A
C1707      C1723   1.414       .  A
C1708      C1724   1.416       .  A
C1708      C1716   1.386       .  A
C1709      C1717   1.391       .  A
C1709      C1726   1.423       .  A
C1710      C1725   1.405       .  A
C1710      C1718   1.382       .  A
C1711      C1723   1.411       .  A
C1711      C1719   1.386       .  A
C1712      C1726   1.416       .  A
C1712      C1720   1.388       .  A
C1713      C1721   1.387       .  A
C1713      C1724   1.411       .  A
C1714      C1722   1.385       .  A
C1714      C1725   1.405       .  A
C1715      C1716   1.373       .  A
C1715      H1727   1.081       .  S
C1716      H1728   1.082       .  S
C1717      C1718   1.374       .  A
C1717      H1729   1.082       .  S
C1718      H1730   1.083       .  S
C1719      C1720   1.372       .  A
C1719      H1731   1.083       .  S
C1720      H1732   1.082       .  S
C1721      C1722   1.370       .  A
C1721      H1733   1.082       .  S
C1722      H1734   1.082       .  S
C1723      C1737   1.443       .  S
C1724      C1746   1.486       .  S
C1725      C1739   1.440       .  S
C1726      C1742   1.496       .  S
C1737      C1738   1.201       .  T
C1739      C1740   1.202       .  T
C1741      C1742   1.344       .  D
C1741      H1743   1.086       .  S
C1745      C1746   1.344       .  D
C1746      H1748   1.086       .  S
C1749      C1750   1.344       .  D
C1753      C1754   1.346       .  D
C1757      C1758   1.343       .  D
C1757      H1759   1.086       .  S
C1761      C1762   1.345       .  D
C1762      H1764   1.086       .  S
C1765      C1766   1.202       .  T
C1767      C1768   1.200       .  T
C1769      C1770   1.342       .  D
C1769      H1771   1.087       .  S
C1773      C1774   1.344   1_556  D
