geometry optimzed in LAMMPS
_audit_creation_date              2020-11-30 
_audit_creation_method            'lammps2cif' 
_symmetry_space_group_name_H-M    'P1' 
_symmetry_Int_Tables_number       1 
_symmetry_cell_setting            triclinic 
loop_ 
_symmetry_equiv_pos_as_xyz 
  x,y,z 
_cell_length_a                    49.3923138 
_cell_length_b                    49.71691614457752 
_cell_length_c                    65.87821733047633 
_cell_angle_alpha                 92.3331017152434 
_cell_angle_beta                  87.21681025928198 
_cell_angle_gamma                 124.05989789386048 
loop_ 
_atom_site_label 
_atom_site_type_symbol 
_atom_site_fract_x 
_atom_site_fract_y 
_atom_site_fract_z 
_atom_site_charge 
C1          C  0.03433775  0.70975875  0.31143946     0.03200
C2          C  0.02564539  0.68984158  0.32830378    -0.13000
C3          C  0.04603566  0.70017396  0.34496087     0.00700
C4          C  0.07511572  0.73139721  0.34491329    -0.11500
C5          C  0.08551042  0.75160817  0.32777995     0.03100
C6          C  0.06453521  0.74008924  0.31107395    -0.10900
H7          H  0.00250496  0.66638038  0.32869937     0.08700
H8          H  0.08968726  0.73924920  0.35826472     0.06300
H9          H  0.07159719  0.75394914  0.29735276     0.06100
C10         C  0.17419779  0.82031910  0.33959937     0.03200
C11         C  0.14343663  0.79067234  0.34030029    -0.13000
C12         C  0.11839690  0.78382876  0.32709086     0.00700
C13         C  0.12564293  0.80782027  0.31285385    -0.11500
C14         C  0.15704737  0.83660617  0.31118608     0.03100
C15         C  0.18079980  0.84282146  0.32484452    -0.10900
H16         H  0.13990745  0.77297028  0.35095030     0.08700
H17         H  0.10740499  0.80436767  0.30269608     0.06300
H18         H  0.20446374  0.86576727  0.32421521     0.06100
C19         C  0.81778485  0.17465142  0.65216417     0.03200
C20         C  0.78714833  0.14479047  0.65209338    -0.13000
C21         C  0.78005499  0.11904392  0.66460579     0.00700
C22         C  0.80434538  0.12471506  0.67795606    -0.11500
C23         C  0.83415033  0.15520514  0.67935679     0.03100
C24         C  0.84084080  0.17985854  0.66618607    -0.10900
H25         H  0.76891074  0.14222606  0.64230131     0.08700
H26         H  0.80033882  0.10568013  0.68758014     0.06300
H27         H  0.86449080  0.20278876  0.66645238     0.06100
C28         C  0.70605785  0.03450083  0.67942786     0.03200
C29         C  0.68646677  0.02621337  0.66254641    -0.13000
C30         C  0.69670017  0.04753464  0.64625315     0.00700
C31         C  0.72765405  0.07703367  0.64669737    -0.11500
C32         C  0.74760379  0.08659718  0.66378024     0.03100
C33         C  0.73599021  0.06489925  0.68016865    -0.10900
H34         H  0.66332576  0.00279059  0.66195345     0.08700
H35         H  0.73563903  0.09253483  0.63369817     0.06300
H36         H  0.74950369  0.07149902  0.69393963     0.06100
O37         O  0.39385359  0.92632717  0.52589473    -0.72900
O38         O  0.43107904  0.88974894  0.48663130    -0.73900
O39         O  0.44970918  0.92312737  0.52486418    -0.62500
O40         O  0.37538848  0.89283100  0.48792612    -0.70900
O41         O  0.40403657  0.93982528  0.47199596    -0.70500
O42         O  0.47910109  0.97031800  0.50922958    -0.61700
O43         O  0.45967941  0.93692232  0.47091207    -0.74200
O44         O  0.42313687  0.97347848  0.51018738    -0.73000
Cu45       Cu  0.41157789  0.90642624  0.50690910     1.04600
Cu46       Cu  0.44252902  0.95680287  0.49006408     1.04300
C47         C  0.40245507  0.95567100  0.52413752     0.93300
C48         C  0.45084812  0.90747793  0.47229311     0.92400
C49         C  0.47612314  0.95135617  0.52302407     0.84600
C50         C  0.37794882  0.91134060  0.47399940     0.90800
O51         O  0.89473293  0.44482917  0.51058590    -0.72900
O52         O  0.93256886  0.40455596  0.47547749    -0.73900
O53         O  0.89966481  0.39121698  0.51430569    -0.62500
O54         O  0.92743227  0.45831666  0.47173533    -0.70900
O55         O  0.97545336  0.49033521  0.48601689    -0.70500
O56         O  0.94716133  0.42349033  0.52914098    -0.61700
O57         O  0.98006529  0.43611802  0.49043674    -0.74200
O58         O  0.94275229  0.47745937  0.52477897    -0.73000
Cu59       Cu  0.91198601  0.42363631  0.49248731     1.04600
Cu60       Cu  0.96303347  0.45796534  0.50807290     1.04300
C61         C  0.91271585  0.46731986  0.52340426     0.93300
C62         C  0.96228405  0.41388343  0.47743724     0.92400
C63         C  0.91882851  0.39688626  0.52864364     0.84600
C64         C  0.95573010  0.48495083  0.47209652     0.90800
C65         C  0.48438633  0.91973937  0.98741184     0.03200
C66         C  0.50645308  0.93681079  0.00292007    -0.13000
C67         C  0.50194365  0.95582366  0.01711350     0.00700
C68         C  0.47503152  0.95815473  0.01544815    -0.11500
C69         C  0.45173204  0.94062153  0.00019198     0.03100
C70         C  0.45649389  0.92054349  0.98669025    -0.10900
H71         H  0.52725505  0.93507721  0.00397867     0.08700
H72         H  0.47335181  0.97459009  0.02579101     0.06300
H73         H  0.43922437  0.90588802  0.97511593     0.06100
C74         C  0.38805803  0.96171787  0.01084838     0.03200
C75         C  0.37073714  0.95034231  0.99285369    -0.13000
C76         C  0.37948578  0.93667388  0.97711313     0.00700
C77         C  0.40624869  0.93445418  0.97944697    -0.11500
C78         C  0.42342277  0.94402914  0.99782099     0.03100
C79         C  0.41353271  0.95744563  0.01356156    -0.10900
H80         H  0.34973369  0.95158230  0.99126374     0.08700
H81         H  0.41362350  0.92578533  0.96649836     0.06300
H82         H  0.42551420  0.96502674  0.02792688     0.06100
C83         C  0.93692917  0.37367924  0.98743156     0.03200
C84         C  0.93669990  0.40176921  0.98654958    -0.13000
C85         C  0.92743187  0.41319588  0.00375314     0.00700
C86         C  0.91742896  0.39516092  0.02180376    -0.11500
C87         C  0.91707868  0.36678317  0.02278072     0.03100
C88         C  0.92715568  0.35654822  0.00564348    -0.10900
H89         H  0.94314156  0.41422958  0.97225000     0.08700
H90         H  0.91076989  0.40348649  0.03535626     0.06300
H91         H  0.92723022  0.33487754  0.00650483     0.06100
C92         C  0.90964078  0.47847535  0.01445341     0.03200
C93         C  0.90767651  0.44914936  0.01519679    -0.13000
C94         C  0.92891166  0.44414238  0.00293209     0.00700
C95         C  0.95208873  0.46926430  0.98992522    -0.11500
C96         C  0.95392615  0.49836227  0.98894331     0.03100
C97         C  0.93281612  0.50273592  0.00128566    -0.10900
H98         H  0.88916889  0.43019928  0.02502904     0.08700
H99         H  0.96941204  0.46677246  0.98081428     0.06300
H100        H  0.93446553  0.52535713  0.00061099     0.06100
C101        C  0.05392787  0.28912219  0.34888403     0.03200
C102        C  0.03274590  0.27366527  0.33272544    -0.13000
C103        C  0.03635498  0.25386771  0.31874762     0.00700
C104        C  0.06093559  0.24843782  0.32147885    -0.11500
C105        C  0.08366873  0.26450222  0.33719820     0.03100
C106        C  0.07965476  0.28499768  0.35081083    -0.10900
H107        H  0.01268109  0.27643654  0.33124111     0.08700
H108        H  0.06208193  0.23180071  0.31103529     0.06300
H109        H  0.09669396  0.29857251  0.36272586     0.06100
C110        C  0.14575630  0.24211940  0.32461016     0.03200
C111        C  0.12124519  0.24790356  0.32262126    -0.13000
C112        C  0.11138276  0.26007856  0.33916054     0.00700
C113        C  0.12842792  0.26796312  0.35750715    -0.11500
C114        C  0.15423046  0.26393619  0.35924604     0.03100
C115        C  0.16221590  0.25055183  0.34287061    -0.10900
H116        H  0.11008741  0.24260107  0.30804627     0.08700
H117        H  0.12176731  0.27683609  0.37072816     0.06300
H118        H  0.18231511  0.24774978  0.34407488     0.06100
O119        O  0.26832086  0.08082775  0.19228685    -0.72900
O120        O  0.30763850  0.15555078  0.15384470    -0.73900
O121        O  0.27013279  0.13891258  0.19101717    -0.62500
O122        O  0.30580988  0.09745359  0.15529972    -0.70900
O123        O  0.26021576  0.07129266  0.13798945    -0.70500
O124        O  0.22452482  0.11320128  0.17372635    -0.61700
O125        O  0.26194869  0.12927848  0.13662517    -0.74200
O126        O  0.22258575  0.05488040  0.17511292    -0.73000
Cu127      Cu  0.28953455  0.11909297  0.17371418     1.04600
Cu128      Cu  0.24072257  0.09125252  0.15527539     1.04300
C129        C  0.23925292  0.05597462  0.18975873     0.93300
C130        C  0.29101551  0.15415561  0.13906178     0.92400
C131        C  0.24174921  0.13270783  0.18807410     0.84600
C132        C  0.28874737  0.07785137  0.14096464     0.90800
C133        C  0.62467068  0.71872298  0.32516980     0.03200
C134        C  0.61322844  0.69937910  0.34248395    -0.13000
C135        C  0.59800366  0.70533368  0.35885499     0.00700
C136        C  0.59458639  0.73147599  0.35789312    -0.11500
C137        C  0.60499733  0.75096904  0.34038491     0.03100
C138        C  0.61949486  0.74365565  0.32393129    -0.10900
H139        H  0.61571773  0.67911263  0.34305508     0.08700
H140        H  0.58452609  0.73678286  0.37116263     0.06300
H141        H  0.62730631  0.75741969  0.31012371     0.06100
C142        C  0.57546961  0.80700451  0.35206352     0.03200
C143        C  0.59504574  0.83205928  0.33832343    -0.13000
C144        C  0.61760016  0.83116831  0.32506975     0.00700
C145        C  0.62114378  0.80509814  0.32604168    -0.11500
C146        C  0.60131711  0.77904485  0.33945468     0.03100
C147        C  0.57810899  0.78029673  0.35214624    -0.10900
H148        H  0.59276622  0.85246849  0.33795798     0.08700
H149        H  0.64001181  0.80591956  0.31652177     0.06300
H150        H  0.56149589  0.76041459  0.36203253     0.06100
O151        O  0.73738981  0.60861671  0.18980550    -0.72900
O152        O  0.77090839  0.56778558  0.15223227    -0.73900
O153        O  0.79197769  0.60338181  0.18956341    -0.62500
O154        O  0.71687351  0.57388881  0.15206508    -0.70900
O155        O  0.74779218  0.62007920  0.13551912    -0.70500
O156        O  0.82145271  0.64940142  0.17269482    -0.61700
O157        O  0.80163102  0.61364571  0.13532257    -0.74200
O158        O  0.76690358  0.65484230  0.17312383    -0.73000
Cu159      Cu  0.75323565  0.58682805  0.17149801     1.04600
Cu160      Cu  0.78549149  0.63608110  0.15359280     1.04300
C161        C  0.74652187  0.63796882  0.18749660     0.93300
C162        C  0.79158505  0.58399500  0.13790595     0.92400
C163        C  0.81869837  0.63127219  0.18694281     0.84600
C164        C  0.72069190  0.59257702  0.13777998     0.90800
O165        O  0.79953498  0.11906916  0.19289402    -0.72900
O166        O  0.72358877  0.07823187  0.15557750    -0.73900
O167        O  0.73770964  0.05898454  0.19177056    -0.62500
O168        O  0.78541652  0.13830657  0.15694391    -0.70900
O169        O  0.80759091  0.11681410  0.13838449    -0.70500
O170        O  0.75958423  0.03718648  0.17322152    -0.61700
O171        O  0.74568919  0.05665438  0.13702682    -0.74200
O172        O  0.82137909  0.09718019  0.17439629    -0.73000
Cu173      Cu  0.76075778  0.09934210  0.17493409     1.04600
Cu174      Cu  0.78427283  0.07617137  0.15509576     1.04300
C175        C  0.82238565  0.11444389  0.18963383     0.93300
C176        C  0.72288488  0.06136377  0.14017888     0.92400
C177        C  0.74152585  0.03579157  0.18829248     0.84600
C178        C  0.80402307  0.14013935  0.14211234     0.90800
C179        C  0.35706824  0.38776106  0.98591715     0.03200
C180        C  0.34961823  0.36442467  0.00028328    -0.13000
C181        C  0.37278478  0.36951029  0.01409131     0.00700
C182        C  0.40448349  0.39802497  0.01289573    -0.11500
C183        C  0.41271378  0.42275038  0.99899300     0.03100
C184        C  0.38817677  0.41709014  0.98572850    -0.10900
H185        H  0.32578404  0.34166226  0.00041639     0.08700
H186        H  0.42224026  0.40060970  0.02311386     0.06300
H187        H  0.39246285  0.43543382  0.97535814     0.06100
C188        C  0.48761297  0.50532890  0.98156974     0.03200
C189        C  0.45754287  0.47495016  0.98154839    -0.13000
C190        C  0.44626706  0.45433496  0.99853728     0.00700
C191        C  0.46728897  0.46459565  0.01517600    -0.11500
C192        C  0.49850407  0.49391433  0.01479719     0.03100
C193        C  0.50800328  0.51431501  0.99810179    -0.10900
H194        H  0.44299978  0.46808632  0.96824089     0.08700
H195        H  0.45987983  0.45000184  0.02856057     0.06300
H196        H  0.53144460  0.53749268  0.99797440     0.06100
C197        C  0.82125873  0.58662994  0.65597063     0.03200
C198        C  0.79337674  0.58744922  0.65513930    -0.13000
C199        C  0.78064721  0.59487727  0.67258469     0.00700
C200        C  0.79779033  0.60287428  0.69083667    -0.11500
C201        C  0.82656587  0.60350422  0.69161838     0.03100
C202        C  0.83769139  0.59483879  0.67423975    -0.10900
H203        H  0.78241841  0.58305206  0.64054850     0.08700
H204        H  0.78886891  0.60819514  0.70466984     0.06300
H205        H  0.85958362  0.59486674  0.67488208     0.06100
C206        C  0.71379756  0.61115944  0.68457861     0.03200
C207        C  0.69339399  0.59483854  0.66815100    -0.13000
C208        C  0.70015524  0.57784078  0.65367296     0.00700
C209        C  0.72751850  0.57661003  0.65590911    -0.11500
C210        C  0.74991010  0.59443013  0.67151937     0.03100
C211        C  0.74259433  0.61183831  0.68579535    -0.10900
H212        H  0.67188152  0.59525161  0.66662393     0.08700
H213        H  0.73125268  0.56198971  0.64509615     0.06300
H214        H  0.75888540  0.62582333  0.69797667     0.06100
O215        O  0.65144643  0.83017508  0.82359837    -0.72900
O216        O  0.62159985  0.75577906  0.86084587    -0.73900
O217        O  0.65366793  0.77439392  0.82193611    -0.62500
O218        O  0.61952601  0.81165951  0.86253125    -0.70900
O219        O  0.57122691  0.78366675  0.84821237    -0.70500
O220        O  0.60566483  0.74624784  0.80726016    -0.61700
O221        O  0.57345833  0.72745947  0.84634040    -0.74200
O222        O  0.60326077  0.80228385  0.80913583    -0.73000
Cu223      Cu  0.63817435  0.79393216  0.84272601     1.04600
Cu224      Cu  0.58670214  0.76391806  0.82722447     1.04300
C225        C  0.63214583  0.82800125  0.81039348     0.93300
C226        C  0.59283146  0.72991056  0.85960485     0.92400
C227        C  0.63524543  0.75456288  0.80810131     0.84600
C228        C  0.59006790  0.80366816  0.86187750     0.90800
C229        C  0.26403662  0.03695196  0.64930157     0.03200
C230        C  0.25156444  0.01692395  0.66628694    -0.13000
C231        C  0.24092591  0.02554970  0.68388557     0.00700
C232        C  0.24366904  0.05522199  0.68473546    -0.11500
C233        C  0.25518947  0.07560631  0.66769225     0.03100
C234        C  0.26534213  0.06598999  0.64996647    -0.10900
H235        H  0.25070144  0.99464341  0.66600542     0.08700
H236        H  0.23634444  0.06196421  0.69870485     0.06300
H237        H  0.27350515  0.08041410  0.63640252     0.06100
C238        C  0.23562294  0.13867928  0.68229873     0.03200
C239        C  0.25804354  0.16420469  0.66957989    -0.13000
C240        C  0.27918015  0.16134948  0.65616664     0.00700
C241        C  0.27844999  0.13270597  0.65579193    -0.11500
C242        C  0.25614587  0.10641756  0.66838503     0.03100
C243        C  0.23458995  0.10980359  0.68152511    -0.10900
H244        H  0.25888970  0.18647764  0.66997442     0.08700
H245        H  0.29583636  0.13148433  0.64586792     0.06300
H246        H  0.21625677  0.08985213  0.69082347     0.06100
O247        O  0.13865144  0.29266800  0.84888611    -0.72900
O248        O  0.07024354  0.26570624  0.80818292    -0.73900
O249        O  0.08547060  0.29892078  0.84639617    -0.62500
O250        O  0.12292225  0.25877068  0.81069107    -0.70900
O251        O  0.09073450  0.21209337  0.82657448    -0.70500
O252        O  0.05272671  0.25188371  0.86178915    -0.61700
O253        O  0.03726777  0.21846062  0.82330168    -0.74200
O254        O  0.10650445  0.24616091  0.86494605    -0.73000
Cu255      Cu  0.10543638  0.28056598  0.82800972     1.04600
Cu256      Cu  0.07067884  0.23047050  0.84470675     1.04300
C257        C  0.13338722  0.27421727  0.86360492     0.93300
C258        C  0.04310507  0.23797502  0.80905176     0.92400
C259        C  0.06324095  0.28174017  0.85984688     0.84600
C260        C  0.11244211  0.22893523  0.81281406     0.90800
O261        O  0.13804532  0.78061689  0.80224117    -0.72900
O262        O  0.10074678  0.70556308  0.83972809    -0.73900
O263        O  0.07899620  0.71840575  0.80460112    -0.62500
O264        O  0.15997041  0.76787529  0.83744619    -0.70900
O265        O  0.13767124  0.78861185  0.85668961    -0.70500
O266        O  0.05649731  0.73905089  0.82373070    -0.61700
O267        O  0.07827775  0.72611628  0.85899534    -0.74200
O268        O  0.11586063  0.80153074  0.82143438    -0.73000
Cu269      Cu  0.12022556  0.74244006  0.82034264     1.04600
Cu270      Cu  0.09629296  0.76453985  0.84091029     1.04300
C271        C  0.13269912  0.80276426  0.80570573     0.93300
C272        C  0.08362542  0.70398262  0.85537462     0.92400
C273        C  0.05499684  0.72097556  0.80884413     0.84600
C274        C  0.16162386  0.78597919  0.85234670     0.90800
O275        O  0.46236140  0.45987095  0.47838472    -0.72900
O276        O  0.42039726  0.37974773  0.51216132    -0.73900
O277        O  0.40171141  0.39762430  0.47747276    -0.62500
O278        O  0.48048965  0.44175952  0.51325442    -0.70900
O279        O  0.45693209  0.46086448  0.53282916    -0.70500
O280        O  0.37891475  0.41673251  0.49779629    -0.61700
O281        O  0.39750114  0.39886317  0.53239473    -0.74200
O282        O  0.43881841  0.47874022  0.49819997    -0.73000
Cu283      Cu  0.44203142  0.41907475  0.49457719     1.04600
Cu284      Cu  0.41721823  0.43940412  0.51596817     1.04300
C285        C  0.45734658  0.48203044  0.48290643     0.93300
C286        C  0.40273262  0.37685392  0.52783977     0.92400
C287        C  0.37783785  0.40034168  0.48204838     0.84600
C288        C  0.48093906  0.45825761  0.52882393     0.90800
C289        C  0.30086385  0.18810883  0.64199871    -0.03200
C290        C  0.31907042  0.22040776  0.64911718    -0.05800
C291        C  0.33578545  0.24598676  0.63548903    -0.20900
C292        C  0.33458342  0.23995050  0.61442499     0.24900
C293        C  0.31732460  0.20745081  0.60733679    -0.18400
C294        C  0.30081583  0.18183106  0.62103397    -0.08400
C295        C  0.34951929  0.26825164  0.60066829    -0.18700
C296        C  0.35264600  0.26664273  0.58029090    -0.23500
C297        C  0.36524121  0.29514180  0.56708852     0.26900
C298        C  0.38028671  0.29625021  0.54823245    -0.20200
C299        C  0.39222247  0.32261309  0.53538932    -0.09900
C300        C  0.38891213  0.34825148  0.54102105    -0.10400
C301        C  0.37309029  0.34673342  0.55967176    -0.03300
C302        C  0.36134433  0.32048436  0.57255558    -0.18500
H303        H  0.31963486  0.22586599  0.66523977     0.10600
H304        H  0.34888818  0.27066310  0.64143537     0.10700
H305        H  0.31523021  0.20142218  0.59130819     0.10400
H306        H  0.28660340  0.15711161  0.61517917     0.11500
H307        H  0.35819217  0.29168626  0.60781932     0.11600
H308        H  0.34670516  0.24419261  0.57287250     0.13500
H309        H  0.38317214  0.27683018  0.54353138     0.10000
H310        H  0.40414284  0.32294807  0.52107585     0.12100
H311        H  0.36995307  0.36596915  0.56440867     0.08700
H312        H  0.34878474  0.31993501  0.58660906     0.11400
C313        C  0.12497970  0.21361359  0.79902119    -0.03200
C314        C  0.11716868  0.18233522  0.80279320    -0.05800
C315        C  0.12831598  0.16760524  0.78947117    -0.20900
C316        C  0.14702982  0.18350595  0.77190579     0.24900
C317        C  0.15516390  0.21497306  0.76824511    -0.18400
C318        C  0.14425440  0.22980465  0.78164404    -0.08400
C319        C  0.15892313  0.16731393  0.75823704    -0.18700
C320        C  0.16570638  0.17372694  0.73824929    -0.23500
C321        C  0.18005895  0.16024707  0.72416598     0.26900
C322        C  0.18240963  0.16665152  0.70336503    -0.20200
C323        C  0.19896957  0.15811206  0.68966951    -0.09900
C324        C  0.21377246  0.14296242  0.69639701    -0.10400
C325        C  0.21003044  0.13489957  0.71700491    -0.03300
C326        C  0.19347789  0.14356395  0.73080131    -0.18500
H327        H  0.10247141  0.16922518  0.81607777     0.10600
H328        H  0.12203498  0.14355055  0.79280131     0.10700
H329        H  0.17047215  0.22852720  0.75526950     0.10400
H330        H  0.15080279  0.25394556  0.77831275     0.11500
H331        H  0.16125740  0.14915490  0.76489089     0.11600
H332        H  0.16061138  0.19005711  0.73166664     0.13500
H333        H  0.17221344  0.17924018  0.69772677     0.10000
H334        H  0.20096892  0.16417649  0.67381837     0.12100
H335        H  0.22135919  0.12340827  0.72263645     0.08700
H336        H  0.19259668  0.13829636  0.74665734     0.11400
C337        C  0.14567265  0.82953266  0.79115202    -0.03200
C338        C  0.16029089  0.82840395  0.77260346    -0.05800
C339        C  0.17157901  0.85282978  0.75841249    -0.20900
C340        C  0.16891928  0.87918409  0.76245137     0.24900
C341        C  0.15438107  0.88051479  0.78104752    -0.18400
C342        C  0.14284392  0.85586119  0.79525796    -0.08400
C343        C  0.18026213  0.90368869  0.74638739    -0.18700
C344        C  0.18823722  0.93418661  0.74968326    -0.23500
C345        C  0.20023937  0.95773070  0.73291961     0.26900
C346        C  0.22258363  0.99100036  0.73695549    -0.20200
C347        C  0.23551241  0.01335710  0.72114016    -0.09900
C348        C  0.22612270  0.00272612  0.70105350    -0.10400
C349        C  0.20276112  0.96963248  0.69718982    -0.03300
C350        C  0.18982118  0.94740661  0.71292796    -0.18500
H351        H  0.16264632  0.80837397  0.76888539     0.10600
H352        H  0.18242555  0.85107270  0.74414684     0.10700
H353        H  0.15113484  0.90000897  0.78449144     0.10400
H354        H  0.13147337  0.85727973  0.80937200     0.11500
H355        H  0.18373497  0.89657476  0.73118432     0.11600
H356        H  0.18807321  0.94282747  0.76505436     0.13500
H357        H  0.23069194  0.99956877  0.75227273     0.10000
H358        H  0.25347713  0.03876252  0.72450599     0.12100
H359        H  0.19448985  0.96093847  0.68191070     0.08700
H360        H  0.17159281  0.92216934  0.70937108     0.11400
C361        C  0.67879795  0.56218268  0.63595246    -0.03200
C362        C  0.66763111  0.53033644  0.62961839    -0.05800
C363        C  0.64591981  0.51538832  0.61362130    -0.20900
C364        C  0.63491049  0.53192768  0.60373421     0.24900
C365        C  0.64753162  0.56439670  0.60942432    -0.18400
C366        C  0.66899773  0.57920426  0.62541199    -0.08400
C367        C  0.60991096  0.51467868  0.58785379    -0.18700
C368        C  0.58859801  0.52257316  0.58411325    -0.23500
C369        C  0.56160415  0.50520897  0.56952238     0.26900
C370        C  0.53656904  0.51057622  0.57135040    -0.20200
C371        C  0.51061654  0.49535255  0.55812862    -0.09900
C372        C  0.50906734  0.47447287  0.54251547    -0.10400
C373        C  0.53426487  0.46922703  0.54044223    -0.03300
C374        C  0.56032979  0.48444020  0.55382368    -0.18500
H375        H  0.67489083  0.51668403  0.63742439     0.10600
H376        H  0.63694577  0.49052678  0.60936158     0.10700
H377        H  0.64096343  0.57855974  0.60157828     0.10400
H378        H  0.67800747  0.60411166  0.62956267     0.11500
H379        H  0.60756758  0.49369734  0.58031554     0.11600
H380        H  0.58955157  0.54180726  0.59316089     0.13500
H381        H  0.53695288  0.52656011  0.58318714     0.10000
H382        H  0.49173971  0.50007491  0.56015672     0.12100
H383        H  0.53379425  0.45332029  0.52853095     0.08700
H384        H  0.57947514  0.48018178  0.55160607     0.11400
C385        C  0.70412983  0.62691188  0.70034626    -0.03200
C386        C  0.67121257  0.61097398  0.70694056    -0.05800
C387        C  0.66102981  0.62606491  0.72056859    -0.20900
C388        C  0.68336326  0.65750600  0.72815818     0.24900
C389        C  0.71661901  0.67329854  0.72200483    -0.18400
C390        C  0.72684367  0.65807392  0.70827528    -0.08400
C391        C  0.67027984  0.67228387  0.74222491    -0.18700
C392        C  0.68814432  0.70230354  0.75063724    -0.23500
C393        C  0.67380398  0.71548443  0.76493365     0.26900
C394        C  0.69398420  0.73927153  0.77929707    -0.20200
C395        C  0.68145306  0.75188924  0.79326377    -0.09900
C396        C  0.64842553  0.74130313  0.79305090    -0.10400
C397        C  0.62834571  0.71808944  0.77832636    -0.03300
C398        C  0.64087132  0.70534115  0.76439444    -0.18500
H399        H  0.65314627  0.58669699  0.70146003     0.10600
H400        H  0.63536618  0.61308251  0.72507374     0.10700
H401        H  0.73489740  0.69741982  0.72743805     0.10400
H402        H  0.75234647  0.67105350  0.70342557     0.11500
H403        H  0.64432906  0.65709575  0.74610021     0.11600
H404        H  0.71435972  0.71744582  0.74789511     0.13500
H405        H  0.71949047  0.74780088  0.77991831     0.10000
H406        H  0.69770510  0.76994378  0.80427180     0.12100
H407        H  0.60290556  0.70970518  0.77757765     0.08700
H408        H  0.62477736  0.68792052  0.75309708     0.11400
C409        C  0.02554750  0.70313738  0.79628262    -0.03200
C410        C  0.02346007  0.68255110  0.78028983    -0.05800
C411        C  0.99614328  0.66626831  0.76808891    -0.20900
C412        C  0.97020703  0.67014493  0.77145834     0.24900
C413        C  0.97204948  0.69042052  0.78769516    -0.18400
C414        C  0.99946829  0.70677069  0.79991172    -0.08400
C415        C  0.94209538  0.65250822  0.75759574    -0.18700
C416        C  0.91799258  0.65753004  0.75684754    -0.23500
C417        C  0.89196058  0.64128148  0.74154660     0.26900
C418        C  0.87699638  0.65676453  0.73574967    -0.20200
C419        C  0.85445053  0.64366426  0.72018799    -0.09900
C420        C  0.84631865  0.61469545  0.71016392    -0.10400
C421        C  0.85980711  0.59819639  0.71676968    -0.03300
C422        C  0.88223307  0.61121076  0.73235834    -0.18500
H423        H  0.04304127  0.67909338  0.77709683     0.10600
H424        H  0.99543394  0.65072962  0.75581038     0.10700
H425        H  0.95252407  0.69375720  0.79122315     0.10400
H426        H  0.00026634  0.72235939  0.81217329     0.11500
H427        H  0.94244084  0.63575735  0.74667493     0.11600
H428        H  0.91845596  0.67587493  0.76657088     0.13500
H429        H  0.88371437  0.67972877  0.74274342     0.10000
H430        H  0.84454868  0.65696902  0.71534799     0.12100
H431        H  0.85343430  0.57546487  0.70958070     0.08700
H432        H  0.89202122  0.59773519  0.73699703     0.11400
C433        C  0.49734356  0.52851140  0.96476645    -0.03200
C434        C  0.49357228  0.51826074  0.94428253    -0.05800
C435        C  0.50291828  0.54053720  0.92869867    -0.20900
C436        C  0.51636653  0.57348323  0.93325921     0.24900
C437        C  0.51938000  0.58349892  0.95378583    -0.18400
C438        C  0.51013942  0.56132900  0.96929839    -0.08400
C439        C  0.52626997  0.59672626  0.91643059    -0.18700
C440        C  0.55002814  0.62860365  0.91835910    -0.23500
C441        C  0.56066127  0.65304148  0.90222602     0.26900
C442        C  0.59117739  0.68266127  0.90392955    -0.20200
C443        C  0.60176737  0.70724178  0.88989653    -0.09900
C444        C  0.58191543  0.70300461  0.87385446    -0.10400
C445        C  0.55136535  0.67328025  0.87201031    -0.03300
C446        C  0.54081096  0.64851848  0.88603914    -0.18500
H447        H  0.48380983  0.49312827  0.94031650     0.10600
H448        H  0.50001573  0.53210300  0.91303497     0.10700
H449        H  0.52831586  0.60834048  0.95799256     0.10400
H450        H  0.51250492  0.56978540  0.98493433     0.11500
H451        H  0.51472176  0.58697823  0.90193981     0.11600
H452        H  0.56344023  0.63734703  0.93232640     0.13500
H453        H  0.60688699  0.68692932  0.91629778     0.10000
H454        H  0.62536966  0.72982521  0.89184367     0.12100
H455        H  0.53542475  0.66928588  0.85986601     0.08700
H456        H  0.51681296  0.62636887  0.88443968     0.11400
C457        C  0.15838567  0.28615703  0.87934206    -0.03200
C458        C  0.15413162  0.26656179  0.89560383    -0.05800
C459        C  0.17728500  0.27879527  0.91081984    -0.20900
C460        C  0.20524288  0.31076799  0.91008285     0.24900
C461        C  0.20931246  0.33041132  0.89386772    -0.18400
C462        C  0.18629442  0.31818260  0.87866636    -0.08400
C463        C  0.22905603  0.32302542  0.92671794    -0.18700
C464        C  0.26050018  0.34848238  0.92470151    -0.23500
C465        C  0.28476090  0.36001097  0.94095862     0.26900
C466        C  0.31815252  0.37718976  0.93538584    -0.20200
C467        C  0.34174403  0.38727147  0.95004692    -0.09900
C468        C  0.33246109  0.38057216  0.97067249    -0.10400
C469        C  0.29915419  0.36471111  0.97637437    -0.03300
C470        C  0.27555172  0.35459960  0.96170766    -0.18500
H471        H  0.13280625  0.24187271  0.89666505     0.10600
H472        H  0.17335575  0.26319446  0.92321248     0.10700
H473        H  0.22979290  0.35549104  0.89300907     0.10400
H474        H  0.19014250  0.33413859  0.86653033     0.11500
H475        H  0.22069680  0.30943414  0.94070526     0.11600
H476        H  0.26970178  0.36018432  0.91011140     0.13500
H477        H  0.32596789  0.38203336  0.91954506     0.10000
H478        H  0.36715546  0.39924194  0.94515305     0.12100
H479        H  0.29132223  0.35983721  0.99220643     0.08700
H480        H  0.25022132  0.34262908  0.96671227     0.11400
C481        C  0.52160809  0.50331416  0.03162414    -0.03200
C482        C  0.51061494  0.49767491  0.05208925    -0.05800
C483        C  0.53267396  0.50665949  0.06767721    -0.20900
C484        C  0.56624022  0.52179379  0.06322922     0.24900
C485        C  0.57716295  0.52702046  0.04274394    -0.18400
C486        C  0.55515718  0.51793821  0.02719576    -0.08400
C487        C  0.58903110  0.53071723  0.08014296    -0.18700
C488        C  0.62108817  0.55480664  0.07875316    -0.23500
C489        C  0.64492262  0.56403019  0.09503137     0.26900
C490        C  0.67451933  0.59471122  0.09419305    -0.20200
C491        C  0.69867081  0.60398548  0.10825818    -0.09900
C492        C  0.69404461  0.58269375  0.12352991    -0.10400
C493        C  0.66426901  0.55203337  0.12458636    -0.03300
C494        C  0.63995111  0.54273801  0.11046823    -0.18500
H495        H  0.48502671  0.48671511  0.05610315     0.10600
H496        H  0.52352938  0.50207891  0.08329349     0.10700
H497        H  0.60258039  0.53742233  0.03856524     0.10400
H498        H  0.56439739  0.52185447  0.01160592     0.11500
H499        H  0.57871772  0.51787339  0.09431591     0.11600
H500        H  0.63043572  0.56944765  0.06518573     0.13500
H501        H  0.67913373  0.61157298  0.08245916     0.10000
H502        H  0.72122244  0.62782421  0.10696785     0.12100
H503        H  0.65997348  0.53501201  0.13610300     0.08700
H504        H  0.61781681  0.51859419  0.11138182     0.11400
C505        C  0.63668523  0.85724208  0.30988592    -0.03200
C506        C  0.65026124  0.88990141  0.31538074    -0.05800
C507        C  0.66493511  0.91401577  0.30067885    -0.20900
C508        C  0.66648338  0.90621028  0.28010251     0.24900
C509        C  0.65374300  0.87356252  0.27467327    -0.18400
C510        C  0.63918787  0.84943080  0.28944543    -0.08400
C511        C  0.67994805  0.93266360  0.26495795    -0.18700
C512        C  0.68700425  0.93002274  0.24522467    -0.23500
C513        C  0.69981344  0.95689935  0.23051744     0.26900
C514        C  0.71814091  0.95766828  0.21330444    -0.20200
C515        C  0.73113763  0.98286177  0.19935386    -0.09900
C516        C  0.72581427  0.00776178  0.20220486    -0.10400
C517        C  0.70652780  0.00639844  0.21907006    -0.03300
C518        C  0.69358361  0.98124668  0.23302395    -0.18500
H519        H  0.64905539  0.89674185  0.33104967     0.10600
H520        H  0.67458051  0.93887194  0.30538470     0.10700
H521        H  0.65381438  0.86613729  0.25904762     0.10400
H522        H  0.62858243  0.82440362  0.28473337     0.11500
H523        H  0.68479868  0.95574285  0.27059451     0.11600
H524        H  0.68483515  0.90810853  0.23964530     0.13500
H525        H  0.72294925  0.93901082  0.21083367     0.10000
H526        H  0.74577800  0.98308057  0.18650428     0.12100
H527        H  0.70165907  0.02499143  0.22163135     0.08700
H528        H  0.67851921  0.98089703  0.24561846     0.11400
C529        C  0.58549232  0.68371661  0.37676351    -0.03200
C530        C  0.60410304  0.67336101  0.38458806    -0.05800
C531        C  0.59108429  0.65018411  0.39983250    -0.20900
C532        C  0.55914677  0.63670529  0.40772049     0.24900
C533        C  0.54083361  0.64791125  0.40039408    -0.18400
C534        C  0.55398995  0.67129571  0.38514960    -0.08400
C535        C  0.54552122  0.60951910  0.42231822    -0.18700
C536        C  0.51702846  0.59672600  0.43302910    -0.23500
C537        C  0.50298181  0.56771178  0.44609330     0.26900
C538        C  0.48041479  0.56258882  0.46182261    -0.20200
C539        C  0.46578552  0.53497206  0.47390107    -0.09900
C540        C  0.47311708  0.51159420  0.47035025    -0.10400
C541        C  0.49553443  0.51659670  0.45452270    -0.03300
C542        C  0.51023248  0.54423204  0.44250960    -0.18500
H543        H  0.62861300  0.68278689  0.37862852     0.10600
H544        H  0.60584400  0.64217478  0.40514909     0.10700
H545        H  0.51598537  0.63797353  0.40570612     0.10400
H546        H  0.53895800  0.67858345  0.37926827     0.11500
H547        H  0.55996012  0.59958099  0.42425241     0.11600
H548        H  0.50355633  0.60795876  0.43263635     0.13500
H549        H  0.47407636  0.58004334  0.46478433     0.10000
H550        H  0.44851740  0.53181241  0.48590743     0.12100
H551        H  0.50159043  0.49899161  0.45128216     0.08700
H552        H  0.52656216  0.54656125  0.43012425     0.11400
C553        C  0.73313783  0.65203878  0.20165528    -0.03200
C554        C  0.73700175  0.68157029  0.19757024    -0.05800
C555        C  0.72363237  0.69413743  0.21098814    -0.20900
C556        C  0.70675722  0.67779003  0.22890605     0.24900
C557        C  0.70260948  0.64807792  0.23283417    -0.18400
C558        C  0.71563485  0.63540826  0.21939173    -0.08400
C559        C  0.69286797  0.69151090  0.24305368    -0.18700
C560        C  0.69033966  0.68695331  0.26325952    -0.23500
C561        C  0.67516719  0.69827689  0.27827537     0.26900
C562        C  0.68177717  0.69926962  0.29885546    -0.20200
C563        C  0.66595786  0.70668443  0.31388212    -0.09900
C564        C  0.64281012  0.71306038  0.30875978    -0.10400
C565        C  0.63674705  0.71302056  0.28811232    -0.03300
C566        C  0.65269889  0.70559821  0.27298037    -0.18500
H567        H  0.75006901  0.69478430  0.18393216     0.10600
H568        H  0.72679854  0.71686415  0.20749457     0.10700
H569        H  0.68879347  0.63421731  0.24612112     0.10400
H570        H  0.71195406  0.61247104  0.22293704     0.11500
H571        H  0.68578735  0.70646030  0.23674925     0.11600
H572        H  0.70051375  0.67454931  0.26934876     0.13500
H573        H  0.69896371  0.69379112  0.30338639     0.10000
H574        H  0.67165594  0.70714846  0.32961678     0.12100
H575        H  0.61884535  0.71758703  0.28371471     0.08700
H576        H  0.64643112  0.70445293  0.25732446     0.11400
C577        C  0.30535911  0.18136273  0.12463865    -0.03200
C578        C  0.33725123  0.20908281  0.12693234    -0.05800
C579        C  0.35051667  0.23471721  0.11329296    -0.20900
C580        C  0.33212132  0.23336011  0.09721694     0.24900
C581        C  0.30044909  0.20532809  0.09469495    -0.18400
C582        C  0.28722366  0.17973119  0.10828194    -0.08400
C583        C  0.34679317  0.26113674  0.08309025    -0.18700
C584        C  0.32852550  0.26821255  0.07297285    -0.23500
C585        C  0.34195877  0.29566352  0.05873553     0.26900
C586        C  0.32209008  0.30642902  0.05425904    -0.20200
C587        C  0.33254487  0.33082314  0.04015514    -0.09900
C588        C  0.36308901  0.34493169  0.02994504    -0.10400
C589        C  0.38334620  0.33459915  0.03458670    -0.03300
C590        C  0.37286047  0.31009838  0.04880758    -0.18500
H591        H  0.35196506  0.21102030  0.13928849     0.10600
H592        H  0.37508796  0.25585034  0.11544704     0.10700
H593        H  0.28592150  0.20277882  0.08206938     0.10400
H594        H  0.26275553  0.15857605  0.10590392     0.11500
H595        H  0.37325913  0.27697315  0.08187832     0.11600
H596        H  0.30225718  0.25399607  0.07584043     0.13500
H597        H  0.29821015  0.29577557  0.06164422     0.10000
H598        H  0.31657750  0.33859485  0.03714932     0.12100
H599        H  0.40682482  0.34473654  0.02677273     0.08700
H600        H  0.38856947  0.30193345  0.05146520     0.11400
C601        C  0.17455078  0.27522884  0.37757372    -0.03200
C602        C  0.18392797  0.25600248  0.38567216    -0.05800
C603        C  0.20767384  0.26867791  0.40044678    -0.20900
C604        C  0.22268865  0.30086149  0.40753619     0.24900
C605        C  0.21212064  0.31965628  0.40012381    -0.18400
C606        C  0.18816439  0.30684552  0.38538454    -0.08400
C607        C  0.25068961  0.31419832  0.42138443    -0.18700
C608        C  0.26439720  0.34278837  0.43155943    -0.23500
C609        C  0.29330560  0.35621204  0.44453515     0.26900
C610        C  0.29802457  0.37823144  0.46021896    -0.22000
C611        C  0.32523119  0.39217111  0.47245463    -0.09900
C612        C  0.34878346  0.38483792  0.46911481    -0.10400
C613        C  0.34433726  0.36304041  0.45326397    -0.03300
C614        C  0.31687830  0.34883370  0.44109645    -0.18500
H615        H  0.17366136  0.23145290  0.38003706     0.10600
H616        H  0.21509966  0.25352982  0.40588709     0.10700
H617        H  0.22315924  0.34467272  0.40482700     0.10400
H618        H  0.18168858  0.32232993  0.37922152     0.11500
H619        H  0.26025774  0.29945543  0.42334911     0.11600
H620        H  0.25356791  0.35661625  0.43111866     0.13500
H621        H  0.28048790  0.38462153  0.46307479     0.10000
H622        H  0.32796353  0.40902197  0.48443074     0.12100
H623        H  0.36212764  0.35704269  0.45021421     0.08700
H624        H  0.31465714  0.33274361  0.42876116     0.11400
C625        C  0.15464569  0.22722336  0.30780792    -0.03200
C626        C  0.15992548  0.20311828  0.31220486    -0.05800
C627        C  0.17113808  0.19084477  0.29709734    -0.20900
C628        C  0.17702782  0.20198311  0.27711469     0.24900
C629        C  0.17081411  0.22541898  0.27243784    -0.18400
C630        C  0.15964662  0.23787631  0.28767449    -0.08400
C631        C  0.19159809  0.18991577  0.26217544    -0.18700
C632        C  0.18912481  0.18932313  0.24186334    -0.23500
C633        C  0.20350053  0.17590250  0.22784795     0.26900
C634        C  0.18778121  0.15988558  0.20980093    -0.20200
C635        C  0.20010778  0.14582647  0.19683813    -0.09900
C636        C  0.22882578  0.14807220  0.20148326    -0.10400
C637        C  0.24512908  0.16508215  0.21921665    -0.03300
C638        C  0.23263896  0.17880913  0.23224521    -0.18500
H639        H  0.15580568  0.19404308  0.32749412     0.10600
H640        H  0.17561208  0.17277206  0.30111814     0.10700
H641        H  0.17568370  0.23503989  0.25727824     0.10400
H642        H  0.15611661  0.25667746  0.28388661     0.11500
H643        H  0.20365171  0.17945969  0.26839620     0.11600
H644        H  0.17444786  0.19668260  0.23542939     0.13500
H645        H  0.16549846  0.15761809  0.20595391     0.10000
H646        H  0.18712750  0.13316513  0.18320160     0.12100
H647        H  0.26745473  0.16753902  0.22317202     0.08700
H648        H  0.24598703  0.19188240  0.24568714     0.11400
C649        C  0.01439495  0.23947862  0.30117899    -0.03200
C650        C  0.00727903  0.25859303  0.29049996    -0.05800
C651        C  0.98464263  0.24498263  0.27508848    -0.20900
C652        C  0.96862648  0.21196571  0.26980453     0.24900
C653        C  0.97647449  0.19291399  0.28002394    -0.18400
C654        C  0.99927602  0.20663242  0.29550928    -0.08400
C655        C  0.94240832  0.19830977  0.25467299    -0.18700
C656        C  0.92965022  0.16946720  0.24496166    -0.23500
C657        C  0.90231799  0.15618600  0.23068848     0.26900
C658        C  0.89883524  0.13415328  0.21532686    -0.20200
C659        C  0.87311037  0.12083845  0.20185808    -0.09900
C660        C  0.84999857  0.12894888  0.20365144    -0.10400
C661        C  0.85320991  0.15064881  0.21921271    -0.03300
C662        C  0.87900877  0.16408237  0.23259455    -0.18500
H663        H  0.01895540  0.28411105  0.29428474     0.10600
H664        H  0.97919797  0.26027217  0.26748539     0.10700
H665        H  0.96427989  0.16724332  0.27673292     0.10400
H666        H  0.00409347  0.19126401  0.30358692     0.11500
H667        H  0.93363953  0.21325957  0.25114255     0.11600
H668        H  0.94010296  0.15553352  0.24686616     0.13500
H669        H  0.91619376  0.12735697  0.21367087     0.10000
H670        H  0.87118700  0.10397786  0.19014385     0.12100
H671        H  0.83566901  0.15717505  0.22113592     0.08700
H672        H  0.88012195  0.18005489  0.24466483     0.11400
C673        C  0.07022430  0.67660526  0.86949064    -0.03200
C674        C  0.07590772  0.65206707  0.86582079    -0.05800
C675        C  0.06391854  0.62671805  0.87950327    -0.20900
C676        C  0.04637385  0.62558479  0.89720663     0.24900
C677        C  0.04000209  0.64969922  0.90061692    -0.18400
C678        C  0.05189653  0.67495951  0.88694413    -0.08400
C679        C  0.03381483  0.59831637  0.91140806    -0.18700
C680        C  0.02859292  0.60119348  0.93139527    -0.23500
C681        C  0.01297127  0.57399284  0.94596826     0.26900
C682        C  0.01249270  0.58146161  0.96670701    -0.20200
C683        C  0.99469816  0.55684378  0.98084224    -0.09900
C684        C  0.97693487  0.52411184  0.97454832    -0.10400
C685        C  0.97866622  0.51644455  0.95399646    -0.03300
C686        C  0.99635477  0.54110664  0.93978560    -0.18500
H687        H  0.08974939  0.65251069  0.85242941     0.10600
H688        H  0.06869094  0.60814702  0.87637905     0.10700
H689        H  0.02539741  0.64890898  0.91365155     0.10400
H690        H  0.04672708  0.69323632  0.89008304     0.11500
H691        H  0.02957225  0.57580677  0.90515516     0.11600
H692        H  0.03580759  0.62485081  0.93752752     0.13500
H693        H  0.02507682  0.60650344  0.97193766     0.10000
H694        H  0.99402210  0.56339661  0.99665135     0.12100
H695        H  0.96487083  0.49137916  0.94874573     0.08700
H696        H  0.99554213  0.53406216  0.92398990     0.11400
C697        C  0.88869925  0.48512812  0.02770109    -0.03200
C698        C  0.87539492  0.50102177  0.01977795    -0.05800
C699        C  0.86111112  0.51306336  0.03264668    -0.20900
C700        C  0.85939542  0.50927816  0.05375012     0.24900
C701        C  0.87107804  0.49175567  0.06164206    -0.18400
C702        C  0.88546135  0.47969318  0.04869615    -0.08400
C703        C  0.84745377  0.52599663  0.06683120    -0.18700
C704        C  0.83781028  0.51913510  0.08647797    -0.23500
C705        C  0.82627658  0.53651532  0.09915095     0.26900
C706        C  0.80389647  0.52006247  0.11527428    -0.20200
C707        C  0.79258564  0.53547321  0.12768054    -0.09900
C708        C  0.80373139  0.56797927  0.12444626    -0.10400
C709        C  0.82656152  0.58471320  0.10847123    -0.03300
C710        C  0.83775975  0.56916806  0.09594529    -0.18500
H711        H  0.87713980  0.50520822  0.00361791     0.10600
H712        H  0.85217992  0.52623065  0.02610053     0.10700
H713        H  0.87074662  0.48865103  0.07781130     0.10400
H714        H  0.89580319  0.46784031  0.05523689     0.11500
H715        H  0.84581732  0.54433532  0.05969822     0.11600
H716        H  0.83651315  0.49897199  0.09335323     0.13500
H717        H  0.79487861  0.49503018  0.11818463     0.10000
H718        H  0.77510618  0.52184132  0.13988102     0.12100
H719        H  0.83588304  0.60984869  0.10569939     0.08700
H720        H  0.85580276  0.58294536  0.08404268     0.11400
C721        C  0.04981815  0.29648131  0.87340900    -0.03200
C722        C  0.06218132  0.32967248  0.87229425    -0.05800
C723        C  0.04997346  0.34361413  0.88544005    -0.20900
C724        C  0.02487428  0.32469100  0.89981934     0.24900
C725        C  0.01267459  0.29151169  0.90104812    -0.18400
C726        C  0.02496059  0.27760902  0.88797698    -0.08400
C727        C  0.01316135  0.34057842  0.91394001    -0.18700
C728        C  0.98293116  0.32438437  0.92273647    -0.23500
C729        C  0.97101553  0.33854759  0.93820568     0.26900
C730        C  0.94264356  0.31705662  0.94975662    -0.20200
C731        C  0.93110114  0.32854792  0.96521695    -0.09900
C732        C  0.94759172  0.36197974  0.96958339    -0.10400
C733        C  0.97525498  0.38372384  0.95750293    -0.03300
C734        C  0.98688205  0.37218489  0.94196746    -0.18500
H735        H  0.08149602  0.34497753  0.86136480     0.10600
H736        H  0.06010882  0.36928969  0.88432761     0.10700
H737        H  0.99422260  0.27630497  0.91240061     0.10400
H738        H  0.01514406  0.25206455  0.88943259     0.11500
H739        H  0.03019280  0.36628667  0.91704897     0.11600
H740        H  0.96605122  0.29884111  0.91896601     0.13500
H741        H  0.92963018  0.29108491  0.94709514     0.10000
H742        H  0.90931603  0.31113404  0.97391100     0.12100
H743        H  0.98851661  0.40962554  0.96046969     0.08700
H744        H  0.00829187  0.38974768  0.93313082     0.11400
C745        C  0.82126677  0.16928788  0.12911427    -0.03200
C746        C  0.84181439  0.17172576  0.11275414    -0.05800
C747        C  0.85747937  0.19884979  0.10024803    -0.20900
C748        C  0.85294990  0.22418809  0.10366455     0.24900
C749        C  0.83281983  0.22204508  0.12028514    -0.18400
C750        C  0.81711454  0.19486036  0.13280095    -0.08400
C751        C  0.87000902  0.25223220  0.08959742    -0.18700
C752        C  0.86291465  0.27467743  0.08820849    -0.23500
C753        C  0.87901948  0.30098518  0.07289571     0.26900
C754        C  0.86259839  0.31487794  0.06680789    -0.20200
C755        C  0.87570522  0.33761083  0.05119852    -0.09900
C756        C  0.90555591  0.34691167  0.04140401    -0.10400
C757        C  0.92296423  0.33461599  0.04837115    -0.03300
C758        C  0.90999661  0.31209043  0.06400381    -0.18500
H759        H  0.84569690  0.15257521  0.10951685     0.10600
H760        H  0.87301595  0.19987238  0.08769295     0.10700
H761        H  0.82923815  0.24126120  0.12389365     0.10400
H762        H  0.80164878  0.19387919  0.14537697     0.11500
H763        H  0.88808038  0.25315164  0.07907229     0.11600
H764        H  0.84307824  0.27256152  0.09746293     0.13500
H765        H  0.83896403  0.30720138  0.07361151     0.10000
H766        H  0.86178123  0.34672293  0.04613334     0.12100
H767        H  0.94642026  0.34199671  0.04140935     0.08700
H768        H  0.92427312  0.30331688  0.06888879     0.11400
C769        C  0.19128331  0.80372767  0.86473458    -0.03200
C770        C  0.21628085  0.79836211  0.86160105    -0.05800
C771        C  0.24382973  0.81445228  0.87367694    -0.20900
C772        C  0.24726016  0.83656517  0.88896419     0.24900
C773        C  0.22218992  0.84188603  0.89213512    -0.18400
C774        C  0.19459125  0.82570057  0.88012759    -0.08400
C775        C  0.27623944  0.85216316  0.90206433    -0.18700
C776        C  0.28766154  0.88063220  0.91201635    -0.23500
C777        C  0.31449083  0.89568324  0.92683096     0.26900
C778        C  0.32546274  0.92680075  0.93457858    -0.20200
C779        C  0.34778592  0.94076398  0.95018030    -0.09900
C780        C  0.35967438  0.92388501  0.95854463    -0.10400
C781        C  0.35005252  0.89342395  0.95016997    -0.03300
C782        C  0.32761039  0.87936386  0.93452923    -0.18500
H783        H  0.21440518  0.78142499  0.84996403     0.10600
H784        H  0.26254462  0.80959074  0.87107196     0.10700
H785        H  0.22326270  0.85781525  0.90421705     0.10400
H786        H  0.17567205  0.83019002  0.88305405     0.11500
H787        H  0.28851770  0.83982166  0.90314236     0.11600
H788        H  0.27654644  0.89376963  0.90938139     0.13500
H789        H  0.31600032  0.94006953  0.92893536     0.10000
H790        H  0.35515395  0.96452073  0.95606327     0.12100
H791        H  0.35859168  0.87971734  0.95641412     0.08700
H792        H  0.31979704  0.85527024  0.92926340     0.11400
C793        C  0.37904658  0.97824140  0.02642263    -0.03200
C794        C  0.37109359  0.99966606  0.02016517    -0.05800
C795        C  0.35920280  0.01280363  0.03411655    -0.20900
C796        C  0.35543361  0.00541992  0.05478967     0.24900
C797        C  0.36450732  0.98493001  0.06130675    -0.18400
C798        C  0.37627239  0.97151819  0.04723097    -0.08400
C799        C  0.34022978  0.01817817  0.06862273    -0.18700
C800        C  0.34404112  0.02209466  0.08886036    -0.23500
C801        C  0.32910277  0.03580945  0.10205106     0.26900
C802        C  0.34498817  0.05336855  0.11969306    -0.20200
C803        C  0.33191033  0.06700164  0.13229628    -0.09900
C804        C  0.30228064  0.06291591  0.12771547    -0.10400
C805        C  0.28594495  0.04466723  0.11029011    -0.03300
C806        C  0.29919773  0.03128278  0.09758004    -0.18500
H807        H  0.37355992  0.00589223  0.00430691     0.10600
H808        H  0.35257251  0.02858191  0.02866960     0.10700
H809        H  0.36138405  0.97817631  0.07707358     0.10400
H810        H  0.38190419  0.95489137  0.05250174     0.11500
H811        H  0.32650800  0.02616158  0.06157247     0.11600
H812        H  0.36023322  0.01714936  0.09585698     0.13500
H813        H  0.36788193  0.05697002  0.12358069     0.10000
H814        H  0.34504136  0.08074324  0.14565797     0.12100
H815        H  0.26297127  0.04085937  0.10639420     0.08700
H816        H  0.28574778  0.01705938  0.08443765     0.11400
C817        C  0.49199933  0.90302416  0.97120151    -0.03200
C818        C  0.46817830  0.87153056  0.96427654    -0.05800
C819        C  0.47613494  0.85630385  0.94904055    -0.20900
C820        C  0.50799947  0.87220634  0.94046583     0.24900
C821        C  0.53145809  0.90415697  0.94698343    -0.18400
C822        C  0.52359050  0.91920775  0.96224315    -0.08400
C823        C  0.51594887  0.85511819  0.92463641    -0.18700
C824        C  0.54657086  0.86258317  0.92114801    -0.23500
C825        C  0.55608910  0.84614568  0.90583880     0.26900
C826        C  0.58747418  0.85239936  0.90678976    -0.20200
C827        C  0.59829227  0.83845683  0.89263606    -0.09900
C828        C  0.57801290  0.81786649  0.87703429    -0.10400
C829        C  0.54652066  0.81146261  0.87600731    -0.03300
C830        C  0.53566771  0.82552389  0.89020064    -0.18500
H831        H  0.44359958  0.85852959  0.97086255     0.10600
H832        H  0.45747586  0.83185153  0.94414410     0.10700
H833        H  0.55584412  0.91792128  0.94018013     0.10400
H834        H  0.54218457  0.94385046  0.96686140     0.11500
H835        H  0.49573716  0.83491967  0.91653765     0.11600
H836        H  0.56595569  0.88109388  0.93061587     0.13500
H837        H  0.60383682  0.86825875  0.91856478     0.10000
H838        H  0.62268512  0.84394828  0.89391436     0.12100
H839        H  0.53036240  0.79584938  0.86409713     0.08700
H840        H  0.51157952  0.82051590  0.88857338     0.11400
C841        C  0.52595025  0.97341915  0.03343518    -0.03200
C842        C  0.51555030  0.97296527  0.05373826    -0.05800
C843        C  0.53822071  0.98645412  0.06928393    -0.20900
C844        C  0.57162178  0.00045452  0.06484104     0.24900
C845        C  0.58214088  0.00256749  0.04438483    -0.18400
C846        C  0.55956974  0.98909382  0.02891799    -0.08400
C847        C  0.59491039  0.01254029  0.08174157    -0.18700
C848        C  0.62279094  0.01349610  0.08019132    -0.23500
C849        C  0.64692788  0.02491038  0.09653466     0.26900
C850        C  0.67093325  0.01807652  0.09433552    -0.20200
C851        C  0.69512464  0.02932961  0.10868237    -0.09900
C852        C  0.69602912  0.04787748  0.12562602    -0.10400
C853        C  0.67187546  0.05455593  0.12798413    -0.03300
C854        C  0.64762981  0.04330275  0.11358434    -0.18500
H855        H  0.48979403  0.96108336  0.05767082     0.10600
H856        H  0.52952601  0.98499092  0.08487522     0.10700
H857        H  0.60779899  0.01456665  0.04020799     0.10400
H858        H  0.56841553  0.99065034  0.01335671     0.11500
H859        H  0.58780315  0.01886254  0.09602695     0.11600
H860        H  0.62790114  0.00428519  0.06634890     0.13500
H861        H  0.67115531  0.00412955  0.08133125     0.10000
H862        H  0.71338557  0.02381547  0.10633318     0.12100
H863        H  0.67204315  0.06902251  0.14078130     0.08700
H864        H  0.63013903  0.04980209  0.11569877     0.11400
C865        C  0.83340424  0.57712469  0.63781697    -0.03200
C866        C  0.86705687  0.59421922  0.63300336    -0.05800
C867        C  0.87876134  0.58405611  0.61680347    -0.20900
C868        C  0.85723577  0.55640127  0.60511095     0.24900
C869        C  0.82339486  0.53979561  0.60950045    -0.18400
C870        C  0.81165054  0.55010127  0.62568631    -0.08400
C871        C  0.87133811  0.54605170  0.58856985    -0.18700
C872        C  0.85598101  0.51559699  0.58078028    -0.23500
C873        C  0.87135639  0.50501042  0.56530592     0.26900
C874        C  0.85110151  0.47731081  0.55326288    -0.20200
C875        C  0.86450299  0.46561816  0.53922090    -0.09900
C876        C  0.89855231  0.48109441  0.53713683    -0.10400
C877        C  0.91887507  0.50888877  0.54912542    -0.03300
C878        C  0.90549182  0.52072271  0.56305406    -0.18500
H879        H  0.88440029  0.61546448  0.64183225     0.10600
H880        H  0.90488215  0.59755419  0.61363354     0.10700
H881        H  0.80585894  0.51897559  0.60050593     0.10400
H882        H  0.78557999  0.53644757  0.62903184     0.11500
H883        H  0.89599470  0.56424118  0.58320411     0.11600
H884        H  0.83123050  0.49734764  0.58595479     0.13500
H885        H  0.82475310  0.46453508  0.55480919     0.10000
H886        H  0.84814707  0.44398537  0.53034885     0.12100
H887        H  0.94519898  0.52125418  0.54798461     0.08700
H888        H  0.92203072  0.54149937  0.57243758     0.11400
C889        C  0.04822632  0.30898990  0.36376245    -0.03200
C890        C  0.03910232  0.32919528  0.35695834    -0.05800
C891        C  0.02923668  0.34441177  0.37076019    -0.20900
C892        C  0.02850215  0.34017016  0.39175606     0.24900
C893        C  0.03885633  0.32096002  0.39869034    -0.18400
C894        C  0.04871613  0.30562160  0.38480719    -0.08400
C895        C  0.01453477  0.35428693  0.40554637    -0.18700
C896        C  0.01908781  0.35914407  0.42572541    -0.23500
C897        C  0.00389936  0.37266322  0.43890131     0.26900
C898        C  0.01974174  0.39064133  0.45646732    -0.20200
C899        C  0.00626778  0.40400059  0.46900586    -0.09900
C900        C  0.97626917  0.39912323  0.46445205    -0.10400
C901        C  0.95992478  0.38029490  0.44719986    -0.03300
C902        C  0.97357515  0.36726663  0.43454779    -0.18500
H903        H  0.03886283  0.33264839  0.34085307     0.10600
H904        H  0.02149612  0.35907818  0.36495677     0.10700
H905        H  0.03806800  0.31651012  0.41470881     0.10400
H906        H  0.05520588  0.28988177  0.39049607     0.11500
H907        H  0.00040156  0.36179976  0.39851283     0.11600
H908        H  0.03557938  0.35463332  0.43273533     0.13500
H909        H  0.04288526  0.39479493  0.46032812     0.10000
H910        H  0.01933112  0.41811473  0.48229321     0.12100
H911        H  0.93667414  0.37587270  0.44333841     0.08700
H912        H  0.96007640  0.35261839  0.42153443     0.11400
C913        C  0.38824469  0.96910505  0.53815429    -0.03200
C914        C  0.40092744  0.00245219  0.53828632    -0.05800
C915        C  0.38741581  0.01516351  0.55134218    -0.20900
C916        C  0.36058072  0.99483916  0.56431625     0.24900
C917        C  0.34797092  0.96146117  0.56431316    -0.18400
C918        C  0.36169481  0.94877678  0.55138351    -0.08400
C919        C  0.34747970  0.00953156  0.57829890    -0.18700
C920        C  0.31614950  0.99309215  0.58528762    -0.23500
C921        C  0.30259254  0.00627208  0.60030909     0.26900
C922        C  0.27157106  0.98440393  0.60919612    -0.20200
C923        C  0.25849930  0.99468045  0.62443809    -0.09900
C924        C  0.27606704  0.02722599  0.63119207    -0.10400
C925        C  0.30636779  0.04957726  0.62164060    -0.03300
C926        C  0.31955017  0.03927435  0.60636092    -0.18500
H927        H  0.42146122  0.01882274  0.52836717     0.10600
H928        H  0.39783649  0.04099118  0.55120345     0.10700
H929        H  0.32800089  0.94516347  0.57456174     0.10400
H930        H  0.35144217  0.92300598  0.55172363     0.11500
H931        H  0.36443220  0.03474112  0.58265539     0.11600
H932        H  0.29948750  0.96814316  0.58017203     0.13500
H933        H  0.25767968  0.95897025  0.60472257     0.10000
H934        H  0.23482162  0.97696049  0.63126169     0.12100
H935        H  0.32046565  0.07480801  0.62653989     0.08700
H936        H  0.34310143  0.05728601  0.59965622     0.11400
C937        C  0.46310527  0.89386198  0.45687348    -0.03200
C938        C  0.48013436  0.91146691  0.43932264    -0.05800
C939        C  0.49090808  0.89852085  0.42437017    -0.20900
C940        C  0.48529297  0.86780974  0.42660039     0.24900
C941        C  0.46805184  0.84999030  0.44413175    -0.18400
C942        C  0.45709911  0.86293349  0.45909872    -0.08400
C943        C  0.49769123  0.85559060  0.41013375    -0.18700
C944        C  0.50172579  0.83117714  0.41220277    -0.23500
C945        C  0.51762494  0.82216710  0.39609750     0.26900
C946        C  0.53398734  0.80807780  0.40180957    -0.20200
C947        C  0.55175235  0.80198783  0.38739010    -0.09900
C948        C  0.55332383  0.80964889  0.36687830    -0.10400
C949        C  0.53537254  0.82198649  0.36096197    -0.03300
C950        C  0.51760454  0.82806145  0.37537341    -0.18500
H951        H  0.48489227  0.93520947  0.43700076     0.10600
H952        H  0.50389457  0.91272899  0.41100056     0.10700
H953        H  0.46244790  0.82592268  0.44628615     0.10400
H954        H  0.44379792  0.84865001  0.47237494     0.11500
H955        H  0.50605942  0.86905862  0.39609514     0.11600
H956        H  0.49607899  0.81930087  0.42671058     0.13500
H957        H  0.53408763  0.80292885  0.41761518     0.10000
H958        H  0.56540145  0.79257161  0.39244883     0.12100
H959        H  0.53539823  0.82732302  0.34518441     0.08700
H960        H  0.50411438  0.83754820  0.37020225     0.11400
C961        C  0.67433746  0.03943314  0.62923364    -0.03200
C962        C  0.68608481  0.04666067  0.60894603    -0.05800
C963        C  0.66464486  0.03921391  0.59322105    -0.20900
C964        C  0.63101816  0.02409505  0.59739143     0.24900
C965        C  0.61945177  0.01755683  0.61772890    -0.18400
C966        C  0.64079324  0.02502616  0.63338667    -0.08400
C967        C  0.60857126  0.01595122  0.58042312    -0.18700
C968        C  0.57684422  0.99097690  0.58143383    -0.23500
C969        C  0.55274930  0.98155908  0.56533362     0.26900
C970        C  0.52327227  0.95081291  0.56649151    -0.20200
C971        C  0.49881447  0.94104196  0.55260561    -0.09900
C972        C  0.50300873  0.96186826  0.53717282    -0.10400
C973        C  0.53263102  0.99266092  0.53581111    -0.03300
C974        C  0.55729201  0.00246882  0.54976358    -0.18500
H975        H  0.71175766  0.05767150  0.60517778     0.10600
H976        H  0.67426503  0.04483002  0.57772833     0.10700
H977        H  0.59398607  0.00723630  0.62171801     0.10400
H978        H  0.63105516  0.02006843  0.64886870     0.11500
H979        H  0.61883638  0.02987632  0.56662025     0.11600
H980        H  0.56793637  0.97558113  0.59466014     0.13500
H981        H  0.51897703  0.93424502  0.57834570     0.10000
H982        H  0.47637098  0.91717464  0.55415705     0.12100
H983        H  0.53658848  0.00933120  0.52413712     0.08700
H984        H  0.57935253  0.02661813  0.54856834     0.11400
C985        C  0.64349627  0.85523454  0.79634036    -0.03200
C986        C  0.67617581  0.88213668  0.79616368    -0.05800
C987        C  0.68721489  0.90727385  0.78244132    -0.20900
C988        C  0.66590072  0.90637344  0.76864405     0.24900
C989        C  0.63309421  0.87944297  0.76886457    -0.18400
C990        C  0.62206356  0.85426553  0.78258949    -0.08400
C991        C  0.67938011  0.93316959  0.75375220    -0.18700
C992        C  0.66084776  0.93912437  0.74287833    -0.23500
C993        C  0.67397446  0.96495257  0.72729589     0.26900
C994        C  0.65250443  0.97173917  0.71941895    -0.20200
C995        C  0.66295046  0.99451984  0.70409142    -0.09900
C996        C  0.69525706  0.01125046  0.69629092    -0.10400
C997        C  0.71695903  0.00487876  0.70426365    -0.03300
C998        C  0.70645506  0.98186102  0.71947959    -0.18500
H999        H  0.69340805  0.88361641  0.80646856     0.10600
H1000       H  0.71264227  0.92748813  0.78254891     0.10700
H1001       H  0.61592355  0.87709046  0.75819421     0.10400
H1002       H  0.59677791  0.83381242  0.78224715     0.11500
H1003       H  0.70577674  0.94887634  0.75216791     0.11600
H1004       H  0.63458929  0.92479419  0.74562156     0.13500
H1005       H  0.62736933  0.95913581  0.72503481     0.10000
H1006       H  0.64574990  0.99911010  0.69833888     0.12100
H1007       H  0.74188213  0.01709447  0.69830522     0.08700
H1008       H  0.72379260  0.97707336  0.72458299     0.11400
C1009       C  0.82608517  0.19980156  0.63697406    -0.03200
C1010       C  0.81647638  0.19064889  0.61675181    -0.05800
C1011       C  0.82525404  0.21407041  0.60216631    -0.20900
C1012       C  0.84407292  0.24726376  0.60732057     0.24900
C1013       C  0.85320379  0.25650053  0.62765796    -0.18400
C1014       C  0.84440079  0.23301443  0.64227924    -0.08400
C1015       C  0.85296405  0.27116377  0.59109313    -0.18700
C1016       C  0.87795875  0.30270495  0.59221768    -0.23500
C1017       C  0.88752239  0.32629909  0.57565858     0.26900
C1018       C  0.91902895  0.35503318  0.57550814    -0.20200
C1019       C  0.92922021  0.37789761  0.56026841    -0.09900
C1020       C  0.90804510  0.37263049  0.54481009    -0.10400
C1021       C  0.87628420  0.34415206  0.54512282    -0.03300
C1022       C  0.86605786  0.32130555  0.56039703    -0.18500
H1023       H  0.80272422  0.16532278  0.61206488     0.10600
H1024       H  0.81769369  0.20619929  0.58668498     0.10700
H1025       H  0.86671899  0.28170963  0.63248474     0.10400
H1026       H  0.85166666  0.24084322  0.65779724     0.11500
H1027       H  0.83934806  0.26172490  0.57724746     0.11600
H1028       H  0.89334525  0.31148764  0.60533211     0.13500
H1029       H  0.93597080  0.35972527  0.58716504     0.10000
H1030       H  0.95375756  0.39968444  0.56058630     0.12100
H1031       H  0.85918359  0.33956695  0.53361450     0.08700
H1032       H  0.84119679  0.30013455  0.56027862     0.11400
C1033       C  0.01876270  0.22893376  0.79329126    -0.03200
C1034       C  0.02627257  0.25066225  0.77760772    -0.05800
C1035       C  0.00367206  0.24301884  0.76278786    -0.20900
C1036       C  0.97304470  0.21336811  0.76306543     0.24900
C1037       C  0.96538107  0.19136371  0.77866926    -0.18400
C1038       C  0.98808764  0.19909607  0.79363179    -0.08400
C1039       C  0.94956815  0.20735585  0.74733198    -0.18700
C1040       C  0.92443272  0.17768130  0.74151819    -0.23500
C1041       C  0.90187385  0.17272424  0.72539663     0.26900
C1042       C  0.88599331  0.14352950  0.71410061    -0.20200
C1043       C  0.86445703  0.13798079  0.69892816    -0.09900
C1044       C  0.85806201  0.16143792  0.69485817    -0.10400
C1045       C  0.87377065  0.19057179  0.70627793    -0.03300
C1046       C  0.89531591  0.19613106  0.72141980    -0.18500
H1047       H  0.04965937  0.27383104  0.77680134     0.10600
H1048       H  0.01018530  0.26045766  0.75102030     0.10700
H1049       H  0.94170792  0.16857769  0.77967701     0.10400
H1050       H  0.98151640  0.18189317  0.80555196     0.11500
H1051       H  0.95438578  0.22846646  0.73947025     0.11600
H1052       H  0.92124588  0.15624766  0.74788377     0.13500
H1053       H  0.89047674  0.12504361  0.71691581     0.10000
H1054       H  0.85295097  0.11539225  0.69029716     0.12100
H1055       H  0.86876706  0.20878414  0.70383048     0.08700
H1056       H  0.90613961  0.21845084  0.73026639     0.11400
C1057       C  0.19947449  0.82853741  0.35453972    -0.03200
C1058       C  0.23247192  0.84405355  0.34827651    -0.05800
C1059       C  0.25672260  0.85501377  0.36255059    -0.20900
C1060       C  0.24869456  0.85077472  0.38344359     0.24900
C1061       C  0.21547260  0.83447475  0.38968609    -0.18400
C1062       C  0.19118379  0.82334846  0.37535856    -0.08400
C1063       C  0.27591356  0.86500181  0.39796818    -0.18700
C1064       C  0.27185885  0.85941294  0.41810401    -0.23500
C1065       C  0.29946312  0.87395075  0.43226922     0.26900
C1066       C  0.29474647  0.85822947  0.45059717    -0.20200
C1067       C  0.32008957  0.87058445  0.46422275    -0.09900
C1068       C  0.35069564  0.89929729  0.45997337    -0.10400
C1069       C  0.35517581  0.91569048  0.44194676    -0.03300
C1070       C  0.32985364  0.90318609  0.42822192    -0.18500
H1071       H  0.23958504  0.84812748  0.33230641     0.10600
H1072       H  0.28198552  0.86736046  0.35722898     0.10700
H1073       H  0.20791505  0.83102801  0.40554426     0.10400
H1074       H  0.16599445  0.81187586  0.38063342     0.11500
H1075       H  0.30054755  0.88026092  0.39154110     0.11600
H1076       H  0.24767159  0.84233525  0.42455920     0.13500
H1077       H  0.27148499  0.83595669  0.45424912     0.10000
H1078       H  0.31572658  0.85751634  0.47806688     0.12100
H1079       H  0.37840989  0.93798012  0.43830442     0.08700
H1080       H  0.33415397  0.91669903  0.41462966     0.11400
C1081       C  0.16599437  0.86031140  0.29495107    -0.03200
C1082       C  0.19560807  0.87304777  0.28383738    -0.05800
C1083       C  0.20598608  0.89741137  0.26973045    -0.20900
C1084       C  0.18700013  0.90958868  0.26626331     0.24900
C1085       C  0.15684329  0.89627867  0.27700929    -0.18400
C1086       C  0.14638040  0.87170535  0.29115671    -0.08400
C1087       C  0.20073599  0.93743165  0.25231704    -0.18700
C1088       C  0.18299044  0.94656278  0.24369142    -0.23500
C1089       C  0.19794990  0.97492235  0.23007487     0.26900
C1090       C  0.17907563  0.97516678  0.21494009    -0.20200
C1091       C  0.19244313  0.00143219  0.20183277    -0.09900
C1092       C  0.22491451  0.02826946  0.20377604    -0.10400
C1093       C  0.24361369  0.02831232  0.21920961    -0.03300
C1094       C  0.23029732  0.00198606  0.23223772    -0.18500
H1095       H  0.21101727  0.86441089  0.28629333     0.10600
H1096       H  0.22925038  0.90713539  0.26169064     0.10700
H1097       H  0.14180246  0.90545611  0.27513884     0.10400
H1098       H  0.12361475  0.86250610  0.29968634     0.11500
H1099       H  0.22671196  0.95040915  0.24852605     0.11600
H1100       H  0.15658637  0.93207677  0.24576079     0.13500
H1101       H  0.15401248  0.95478152  0.21309649     0.10000
H1102       H  0.17731269  0.00069302  0.19017344     0.12100
H1103       H  0.26860100  0.04871231  0.22124115     0.08700
H1104       H  0.24525831  0.00318721  0.24416901     0.11400
C1105       C  0.03749863  0.67763606  0.36198824    -0.03200
C1106       C  0.04143218  0.68841694  0.38236871    -0.05800
C1107       C  0.03376588  0.66693451  0.39816267    -0.20900
C1108       C  0.02182137  0.63422314  0.39394611     0.24900
C1109       C  0.01845622  0.62363504  0.37352581    -0.18400
C1110       C  0.02606131  0.64503685  0.35778833    -0.08400
C1111       C  0.01398678  0.61196549  0.41104048    -0.18700
C1112       C  0.99174038  0.57962153  0.40966484    -0.23500
C1113       C  0.98320910  0.55646656  0.42629639     0.26900
C1114       C  0.95327159  0.52607424  0.42562698    -0.20200
C1115       C  0.94441143  0.50300398  0.44048194    -0.09900
C1116       C  0.96545555  0.50961006  0.45634128    -0.10400
C1117       C  0.99563105  0.53993815  0.45696306    -0.03300
C1118       C  0.00445280  0.56314708  0.44210467    -0.18500
H1119       H  0.05012100  0.71336888  0.38610528     0.10600
H1120       H  0.03687190  0.67581078  0.41373313     0.10700
H1121       H  0.01060559  0.59900049  0.36956549     0.10400
H1122       H  0.02360835  0.63620628  0.34223770     0.11500
H1123       H  0.02576231  0.62280491  0.42534438     0.11600
H1124       H  0.97786877  0.56950001  0.39592987     0.13500
H1125       H  0.93655783  0.52014128  0.41354657     0.10000
H1126       H  0.92104051  0.47989021  0.43947168     0.12100
H1127       H  0.01249290  0.54573113  0.46890911     0.08700
H1128       H  0.02813098  0.58591233  0.44285974     0.11400
C1129       C  0.84680267  0.64303834  0.20032171    -0.03200
C1130       C  0.87542963  0.67428718  0.19773637    -0.05800
C1131       C  0.90193846  0.68589089  0.21031339    -0.20900
C1132       C  0.90079440  0.66655719  0.22570602     0.24900
C1133       C  0.87212578  0.63523264  0.22837427    -0.18400
C1134       C  0.84547627  0.62361679  0.21578385    -0.08400
C1135       C  0.92932443  0.68070003  0.23917638    -0.18700
C1136       C  0.93570618  0.66280933  0.25033617    -0.23500
C1137       C  0.96326959  0.67662533  0.26462570     0.26900
C1138       C  0.97035538  0.65556609  0.27268294    -0.20200
C1139       C  0.99408073  0.66650449  0.28735852    -0.09900
C1140       C  0.01141604  0.69889270  0.29440557    -0.10400
C1141       C  0.00514489  0.72031539  0.28594403    -0.03300
C1142       C  0.98126565  0.70934474  0.27131422    -0.18500
H1143       H  0.87735018  0.68999798  0.18603280     0.10600
H1144       H  0.92349778  0.71017152  0.20798986     0.10700
H1145       H  0.86975545  0.61985275  0.24042444     0.10400
H1146       H  0.82374466  0.59952349  0.21826746     0.11500
H1147       H  0.94605094  0.70690665  0.23929500     0.11600
H1148       H  0.92023959  0.63655300  0.24885685     0.13500
H1149       H  0.95704493  0.63030212  0.26785971     0.10000
H1150       H  0.99861903  0.64947732  0.29337909     0.12100
H1151       H  0.01779681  0.74530920  0.29125243     0.08700
H1152       H  0.97640685  0.72644230  0.26594941     0.11400
loop_ 
_geom_bond_atom_site_label_1 
_geom_bond_atom_site_label_2 
_geom_bond_distance 
_geom_bond_site_symmetry_2 
_ccdc_geom_bond_type 
C1            C2   1.402       .  A
C1            C6   1.407       .  A
C1         C1140   1.491       .  S
C2            C3   1.402       .  A
C2            H7   1.083       .  S
C3            C4   1.405       .  A
C3         C1105   1.490       .  S
C4            C5   1.416       .  A
C4            H8   1.078       .  S
C5            C6   1.417       .  A
C5           C12   1.514       .  S
C6            H9   1.079       .  S
C10          C11   1.405       .  A
C10          C15   1.397       .  A
C10        C1057   1.486       .  S
C11          C12   1.418       .  A
C11          H16   1.079       .  S
C12          C13   1.418       .  A
C13          C14   1.406       .  A
C13          H17   1.079       .  S
C14          C15   1.398       .  A
C14        C1081   1.484       .  S
C15          H18   1.084       .  S
C19          C20   1.406       .  A
C19          C24   1.403       .  A
C19        C1009   1.490       .  S
C20          C21   1.413       .  A
C20          H25   1.079       .  S
C21          C22   1.413       .  A
C21          C32   1.510       .  S
C22          C23   1.406       .  A
C22          H26   1.079       .  S
C23          C24   1.403       .  A
C23        C1044   1.488       .  S
C24          H27   1.083       .  S
C28          C29   1.401       .  A
C28          C33   1.404       .  A
C28         C996   1.487       .  S
C29          C30   1.404       .  A
C29          H34   1.083       .  S
C30          C31   1.407       .  A
C30         C961   1.491       .  S
C31          C32   1.415       .  A
C31          H35   1.079       .  S
C32          C33   1.414       .  A
C33          H36   1.080       .  S
O37         Cu45   2.018       .  S
O37          C47   1.279       .  A
O38         Cu45   2.020       .  S
O38          C48   1.279       .  A
O39         Cu45   2.005       .  S
O39          C49   1.278       .  A
O40         Cu45   2.003       .  S
O40          C50   1.277       .  A
O41         Cu46   2.021       .  S
O41          C50   1.280       .  A
O42         Cu46   2.025       .  S
O42          C49   1.280       .  A
O43         Cu46   2.005       .  S
O43          C48   1.278       .  A
O44         Cu46   2.010       .  S
O44          C47   1.278       .  A
Cu45        Cu46   2.369       .  S
C47         C913   1.484       .  S
C48         C937   1.483       .  S
C49         C972   1.486       .  S
C50        C1068   1.482       .  S
O51         Cu59   2.016       .  S
O51          C61   1.279       .  A
O52         Cu59   2.018       .  S
O52          C62   1.279       .  A
O53         Cu59   2.010       .  S
O53          C63   1.278       .  A
O54         Cu59   2.010       .  S
O54          C64   1.279       .  A
O55         Cu60   2.019       .  S
O55          C64   1.279       .  A
O56         Cu60   2.015       .  S
O56          C63   1.279       .  A
O57         Cu60   2.016       .  S
O57          C62   1.279       .  A
O58         Cu60   2.012       .  S
O58          C61   1.279       .  A
Cu59        Cu60   2.369       .  S
C61         C876   1.484       .  S
C62         C900   1.486       .  S
C63        C1020   1.484       .  S
C64        C1116   1.485       .  S
C65          C66   1.398   1_556  A
C65          C70   1.404       .  A
C65         C817   1.487       .  S
C66          C67   1.400       .  A
C66          H71   1.084       .  S
C67          C68   1.407       .  A
C67         C841   1.488       .  S
C68          C69   1.418       .  A
C68          H72   1.079       .  S
C69          C70   1.419   1_554  A
C69          C78   1.516   1_554  S
C70          H73   1.078       .  S
C74          C75   1.400   1_554  A
C74          C79   1.409       .  A
C74         C793   1.491       .  S
C75          C76   1.397       .  A
C75          H80   1.083       .  S
C76          C77   1.403       .  A
C76         C780   1.488       .  S
C77          C78   1.418       .  A
C77          H81   1.078       .  S
C78          C79   1.421   1_556  A
C79          H82   1.079       .  S
C83          C84   1.406       .  A
C83          C88   1.402   1_556  A
C83         C732   1.492       .  S
C84          C85   1.416   1_556  A
C84          H89   1.082       .  S
C85          C86   1.413       .  A
C85          C94   1.502       .  S
C86          C87   1.405       .  A
C86          H90   1.082       .  S
C87          C88   1.401       .  A
C87         C756   1.485       .  S
C88          H91   1.083       .  S
C92          C93   1.409       .  A
C92          C97   1.400       .  A
C92         C697   1.488       .  S
C93          C94   1.417       .  A
C93          H98   1.082       .  S
C94          C95   1.412   1_554  A
C95          C96   1.402       .  A
C95          H99   1.082       .  S
C96          C97   1.397   1_556  A
C96         C684   1.481       .  S
C97         H100   1.084       .  S
C101        C102   1.400       .  A
C101        C106   1.408       .  A
C101        C889   1.491       .  S
C102        C103   1.398       .  A
C102        H107   1.084       .  S
C103        C104   1.404       .  A
C103        C649   1.488       .  S
C104        C105   1.418       .  A
C104        H108   1.078       .  S
C105        C106   1.420       .  A
C105        C112   1.515       .  S
C106        H109   1.079       .  S
C110        C111   1.405       .  A
C110        C115   1.399       .  A
C110        C625   1.489       .  S
C111        C112   1.420       .  A
C111        H116   1.079       .  S
C112        C113   1.419       .  A
C113        C114   1.407       .  A
C113        H117   1.079       .  S
C114        C115   1.399       .  A
C114        C601   1.487       .  S
C115        H118   1.084       .  S
O119       Cu127   2.012       .  S
O119        C129   1.279       .  A
O120       Cu127   2.016       .  S
O120        C130   1.279       .  A
O121       Cu127   2.012       .  S
O121        C131   1.279       .  A
O122       Cu127   2.011       .  S
O122        C132   1.278       .  A
O123       Cu128   2.020       .  S
O123        C132   1.280       .  A
O124       Cu128   2.021       .  S
O124        C131   1.279       .  A
O125       Cu128   2.007       .  S
O125        C130   1.278       .  A
O126       Cu128   2.011       .  S
O126        C129   1.278       .  A
Cu127      Cu128   2.369       .  S
C129       C1092   1.483       .  S
C130        C577   1.483       .  S
C131        C636   1.486       .  S
C132        C804   1.485       .  S
C133        C134   1.401       .  A
C133        C138   1.405       .  A
C133        C564   1.488       .  S
C134        C135   1.400       .  A
C134        H139   1.084       .  S
C135        C136   1.405       .  A
C135        C529   1.489       .  S
C136        C137   1.417       .  A
C136        H140   1.080       .  S
C137        C138   1.416       .  A
C137        C146   1.509       .  S
C138        H141   1.080       .  S
C142        C143   1.401       .  A
C142        C147   1.405       .  A
C142        C948   1.488       .  S
C143        C144   1.401       .  A
C143        H148   1.083       .  S
C144        C145   1.406       .  A
C144        C505   1.488       .  S
C145        C146   1.416       .  A
C145        H149   1.080       .  S
C146        C147   1.414       .  A
C147        H150   1.080       .  S
O151       Cu159   1.998       .  S
O151        C161   1.277       .  A
O152       Cu159   1.997       .  S
O152        C162   1.277       .  A
O153       Cu159   2.033       .  S
O153        C163   1.281       .  A
O154       Cu159   2.035       .  S
O154        C164   1.281       .  A
O155       Cu160   1.999       .  S
O155        C164   1.277       .  A
O156       Cu160   2.002       .  S
O156        C163   1.277       .  A
O157       Cu160   2.030       .  S
O157        C162   1.281       .  A
O158       Cu160   2.029       .  S
O158        C161   1.281       .  A
Cu159      Cu160   2.368       .  S
C161        C553   1.484       .  S
C162        C708   1.485       .  S
C163       C1129   1.488       .  S
C164        C492   1.488       .  S
O165       Cu173   2.013       .  S
O165        C175   1.279       .  A
O166       Cu173   2.014       .  S
O166        C176   1.279       .  A
O167       Cu173   2.013       .  S
O167        C177   1.279       .  A
O168       Cu173   2.011       .  S
O168        C178   1.278       .  A
O169       Cu174   2.018       .  S
O169        C178   1.280       .  A
O170       Cu174   2.017       .  S
O170        C177   1.279       .  A
O171       Cu174   2.011       .  S
O171        C176   1.279       .  A
O172       Cu174   2.010       .  S
O172        C175   1.278       .  A
Cu173      Cu174   2.369       .  S
C175        C660   1.483       .  S
C176        C852   1.484       .  S
C177        C516   1.486       .  S
C178        C745   1.485       .  S
C179        C180   1.398   1_556  A
C179        C184   1.406       .  A
C179        C468   1.489       .  S
C180        C181   1.400       .  A
C180        H185   1.084       .  S
C181        C182   1.406       .  A
C181        C588   1.488       .  S
C182        C183   1.418   1_554  A
C182        H186   1.078       .  S
C183        C184   1.419       .  A
C183        C190   1.516       .  S
C184        H187   1.079       .  S
C188        C189   1.405       .  A
C188        C193   1.401       .  A
C188        C433   1.489       .  S
C189        C190   1.417       .  A
C189        H194   1.079       .  S
C190        C191   1.418   1_556  A
C191        C192   1.409       .  A
C191        H195   1.078       .  S
C192        C193   1.402   1_554  A
C192        C481   1.494       .  S
C193        H196   1.083       .  S
C197        C198   1.404       .  A
C197        C202   1.399       .  A
C197        C865   1.488       .  S
C198        C199   1.417       .  A
C198        H203   1.080       .  S
C199        C200   1.416       .  A
C199        C210   1.511       .  S
C200        C201   1.407       .  A
C200        H204   1.080       .  S
C201        C202   1.401       .  A
C201        C420   1.485       .  S
C202        H205   1.083       .  S
C206        C207   1.401       .  A
C206        C211   1.410       .  A
C206        C385   1.492       .  S
C207        C208   1.398       .  A
C207        H212   1.084       .  S
C208        C209   1.402       .  A
C208        C361   1.486       .  S
C209        C210   1.416       .  A
C209        H213   1.079       .  S
C210        C211   1.420       .  A
C211        H214   1.080       .  S
O215       Cu223   2.011       .  S
O215        C225   1.279       .  A
O216       Cu223   2.011       .  S
O216        C226   1.279       .  A
O217       Cu223   2.007       .  S
O217        C227   1.278       .  A
O218       Cu223   2.007       .  S
O218        C228   1.278       .  A
O219       Cu224   2.022       .  S
O219        C228   1.280       .  A
O220       Cu224   2.022       .  S
O220        C227   1.280       .  A
O221       Cu224   2.019       .  S
O221        C226   1.279       .  A
O222       Cu224   2.017       .  S
O222        C225   1.279       .  A
Cu223      Cu224   2.369       .  S
C225        C985   1.485       .  S
C226        C444   1.485       .  S
C227        C396   1.485       .  S
C228        C828   1.485       .  S
C229        C230   1.400       .  A
C229        C234   1.408       .  A
C229        C924   1.489       .  S
C230        C231   1.399       .  A
C230        H235   1.084   1_545  S
C231        C232   1.403       .  A
C231        C348   1.482       .  S
C232        C233   1.413       .  A
C232        H236   1.081       .  S
C233        C234   1.418       .  A
C233        C242   1.505       .  S
C234        H237   1.081       .  S
C238        C239   1.400       .  A
C238        C243   1.407       .  A
C238        C324   1.489       .  S
C239        C240   1.399       .  A
C239        H244   1.084       .  S
C240        C241   1.403       .  A
C240        C289   1.482       .  S
C241        C242   1.413       .  A
C241        H245   1.081       .  S
C242        C243   1.418       .  A
C243        H246   1.081       .  S
O247       Cu255   1.998       .  S
O247        C257   1.277       .  A
O248       Cu255   1.994       .  S
O248        C258   1.277       .  A
O249       Cu255   2.019       .  S
O249        C259   1.279       .  A
O250       Cu255   2.018       .  S
O250        C260   1.280       .  A
O251       Cu256   2.013       .  S
O251        C260   1.278       .  A
O252       Cu256   2.012       .  S
O252        C259   1.279       .  A
O253       Cu256   2.030       .  S
O253        C258   1.281       .  A
O254       Cu256   2.029       .  S
O254        C257   1.281       .  A
Cu255      Cu256   2.369       .  S
C257        C457   1.485       .  S
C258       C1033   1.484       .  S
C259        C721   1.486       .  S
C260        C313   1.486       .  S
O261       Cu269   2.003       .  S
O261        C271   1.278       .  A
O262       Cu269   2.003       .  S
O262        C272   1.277       .  A
O263       Cu269   2.007       .  S
O263        C273   1.278       .  A
O264       Cu269   2.010       .  S
O264        C274   1.278       .  A
O265       Cu270   2.014       .  S
O265        C274   1.279       .  A
O266       Cu270   2.015       .  S
O266        C273   1.279       .  A
O267       Cu270   2.010       .  S
O267        C272   1.279       .  A
O268       Cu270   2.011       .  S
O268        C271   1.278       .  A
Cu269      Cu270   2.370       .  S
C271        C337   1.480       .  S
C272        C673   1.480       .  S
C273        C409   1.483       .  S
C274        C769   1.483       .  S
O275       Cu283   2.013       .  S
O275        C285   1.279       .  A
O276       Cu283   2.008       .  S
O276        C286   1.278       .  A
O277       Cu283   2.028       .  S
O277        C287   1.281       .  A
O278       Cu283   2.027       .  S
O278        C288   1.280       .  A
O279       Cu284   1.998       .  S
O279        C288   1.277       .  A
O280       Cu284   2.001       .  S
O280        C287   1.277       .  A
O281       Cu284   2.015       .  S
O281        C286   1.279       .  A
O282       Cu284   2.015       .  S
O282        C285   1.279       .  A
Cu283      Cu284   2.369       .  S
C285        C540   1.485       .  S
C286        C300   1.483       .  S
C287        C612   1.485       .  S
C288        C372   1.484       .  S
C289        C290   1.403       .  A
C289        C294   1.403       .  A
C290        C291   1.396       .  A
C290        H303   1.083       .  S
C291        C292   1.405       .  A
C291        H304   1.083       .  S
C292        C293   1.411       .  A
C292        C295   1.490       .  S
C293        C294   1.400       .  A
C293        H305   1.080       .  S
C294        H306   1.083       .  S
C295        C296   1.348       .  D
C295        H307   1.086       .  S
C296        C297   1.487       .  S
C296        H308   1.083       .  S
C297        C298   1.403       .  A
C297        C302   1.408       .  A
C298        C299   1.399       .  A
C298        H309   1.083       .  S
C299        C300   1.406       .  A
C299        H310   1.083       .  S
C300        C301   1.405       .  A
C301        C302   1.398       .  A
C301        H311   1.083       .  S
C302        H312   1.082       .  S
C313        C314   1.407       .  A
C313        C318   1.406       .  A
C314        C315   1.401       .  A
C314        H327   1.083       .  S
C315        C316   1.404       .  A
C315        H328   1.083       .  S
C316        C317   1.409       .  A
C316        C319   1.491       .  S
C317        C318   1.400       .  A
C317        H329   1.082       .  S
C318        H330   1.083       .  S
C319        C320   1.349       .  D
C319        H331   1.084       .  S
C320        C321   1.493       .  S
C320        H332   1.086       .  S
C321        C322   1.404       .  A
C321        C326   1.411       .  A
C322        C323   1.396       .  A
C322        H333   1.083       .  S
C323        C324   1.405       .  A
C323        H334   1.083       .  S
C324        C325   1.405       .  A
C325        C326   1.404       .  A
C325        H335   1.083       .  S
C326        H336   1.080       .  S
C337        C338   1.404       .  A
C337        C342   1.407       .  A
C338        C339   1.394       .  A
C338        H351   1.083       .  S
C339        C340   1.402       .  A
C339        H352   1.084       .  S
C340        C341   1.408       .  A
C340        C343   1.484       .  S
C341        C342   1.401       .  A
C341        H353   1.081       .  S
C342        H354   1.083       .  S
C343        C344   1.347       .  D
C343        H355   1.086       .  S
C344        C345   1.485       .  S
C344        H356   1.085       .  S
C345        C346   1.404       .  A
C345        C350   1.406       .  A
C346        C347   1.401   1_565  A
C346        H357   1.083       .  S
C347        C348   1.405       .  A
C347        H358   1.083       .  S
C348        C349   1.404   1_545  A
C349        C350   1.394       .  A
C349        H359   1.083       .  S
C350        H360   1.082       .  S
C361        C362   1.406       .  A
C361        C366   1.404       .  A
C362        C363   1.402       .  A
C362        H375   1.083       .  S
C363        C364   1.405       .  A
C363        H376   1.083       .  S
C364        C365   1.408       .  A
C364        C367   1.490       .  S
C365        C366   1.395       .  A
C365        H377   1.082       .  S
C366        H378   1.083       .  S
C367        C368   1.349       .  D
C367        H379   1.085       .  S
C368        C369   1.488       .  S
C368        H380   1.085       .  S
C369        C370   1.403       .  A
C369        C374   1.409       .  A
C370        C371   1.394       .  A
C370        H381   1.084       .  S
C371        C372   1.405       .  A
C371        H382   1.083       .  S
C372        C373   1.407       .  A
C373        C374   1.404       .  A
C373        H383   1.083       .  S
C374        H384   1.081       .  S
C385        C386   1.406       .  A
C385        C390   1.406       .  A
C386        C387   1.395       .  A
C386        H399   1.083       .  S
C387        C388   1.403       .  A
C387        H400   1.084       .  S
C388        C389   1.413       .  A
C388        C391   1.495       .  S
C389        C390   1.405       .  A
C389        H401   1.079       .  S
C390        H402   1.083       .  S
C391        C392   1.348       .  D
C391        H403   1.085       .  S
C392        C393   1.491       .  S
C392        H404   1.083       .  S
C393        C394   1.403       .  A
C393        C398   1.410       .  A
C394        C395   1.399       .  A
C394        H405   1.083       .  S
C395        C396   1.407       .  A
C395        H406   1.083       .  S
C396        C397   1.406       .  A
C397        C398   1.401       .  A
C397        H407   1.083       .  S
C398        H408   1.082       .  S
C409        C410   1.405       .  A
C409        C414   1.406   1_455  A
C410        C411   1.397   1_455  A
C410        H423   1.083       .  S
C411        C412   1.405       .  A
C411        H424   1.083       .  S
C412        C413   1.410       .  A
C412        C415   1.492       .  S
C413        C414   1.401       .  A
C413        H425   1.080       .  S
C414        H426   1.083   1_655  S
C415        C416   1.350       .  D
C415        H427   1.085       .  S
C416        C417   1.489       .  S
C416        H428   1.083       .  S
C417        C418   1.405       .  A
C417        C422   1.408       .  A
C418        C419   1.400       .  A
C418        H429   1.083       .  S
C419        C420   1.404       .  A
C419        H430   1.083       .  S
C420        C421   1.406       .  A
C421        C422   1.398       .  A
C421        H431   1.083       .  S
C422        H432   1.082       .  S
C433        C434   1.406       .  A
C433        C438   1.405       .  A
C434        C435   1.403       .  A
C434        H447   1.083       .  S
C435        C436   1.405       .  A
C435        H448   1.083       .  S
C436        C437   1.407       .  A
C436        C439   1.491       .  S
C437        C438   1.397       .  A
C437        H449   1.082       .  S
C438        H450   1.083       .  S
C439        C440   1.349       .  D
C439        H451   1.085       .  S
C440        C441   1.489       .  S
C440        H452   1.086       .  S
C441        C442   1.403       .  A
C441        C446   1.409       .  A
C442        C443   1.397       .  A
C442        H453   1.083       .  S
C443        C444   1.405       .  A
C443        H454   1.083       .  S
C444        C445   1.407       .  A
C445        C446   1.403       .  A
C445        H455   1.083       .  S
C446        H456   1.081       .  S
C457        C458   1.405       .  A
C457        C462   1.407       .  A
C458        C459   1.402       .  A
C458        H471   1.083       .  S
C459        C460   1.406       .  A
C459        H472   1.083       .  S
C460        C461   1.407       .  A
C460        C463   1.491       .  S
C461        C462   1.397       .  A
C461        H473   1.081       .  S
C462        H474   1.083       .  S
C463        C464   1.350       .  D
C463        H475   1.085       .  S
C464        C465   1.489       .  S
C464        H476   1.084       .  S
C465        C466   1.405       .  A
C465        C470   1.407       .  A
C466        C467   1.399       .  A
C466        H477   1.083       .  S
C467        C468   1.405       .  A
C467        H478   1.083       .  S
C468        C469   1.407       .  A
C469        C470   1.400       .  A
C469        H479   1.083       .  S
C470        H480   1.082       .  S
C481        C482   1.407       .  A
C481        C486   1.407       .  A
C482        C483   1.403       .  A
C482        H495   1.083       .  S
C483        C484   1.405       .  A
C483        H496   1.083       .  S
C484        C485   1.407       .  A
C484        C487   1.493       .  S
C485        C486   1.398       .  A
C485        H497   1.082       .  S
C486        H498   1.083       .  S
C487        C488   1.349       .  D
C487        H499   1.085       .  S
C488        C489   1.491       .  S
C488        H500   1.086       .  S
C489        C490   1.403       .  A
C489        C494   1.410       .  A
C490        C491   1.397       .  A
C490        H501   1.083       .  S
C491        C492   1.407       .  A
C491        H502   1.083       .  S
C492        C493   1.407       .  A
C493        C494   1.405       .  A
C493        H503   1.083       .  S
C494        H504   1.081       .  S
C505        C506   1.405       .  A
C505        C510   1.405       .  A
C506        C507   1.398       .  A
C506        H519   1.083       .  S
C507        C508   1.405       .  A
C507        H520   1.083       .  S
C508        C509   1.410       .  A
C508        C511   1.493       .  S
C509        C510   1.402       .  A
C509        H521   1.080       .  S
C510        H522   1.083       .  S
C511        C512   1.350       .  D
C511        H523   1.085       .  S
C512        C513   1.491       .  S
C512        H524   1.084       .  S
C513        C514   1.404       .  A
C513        C518   1.408       .  A
C514        C515   1.400       .  A
C514        H525   1.084       .  S
C515        C516   1.406   1_565  A
C515        H526   1.083       .  S
C516        C517   1.406       .  A
C517        C518   1.399   1_545  A
C517        H527   1.083       .  S
C518        H528   1.081       .  S
C529        C530   1.405       .  A
C529        C534   1.406       .  A
C530        C531   1.397       .  A
C530        H543   1.083       .  S
C531        C532   1.404       .  A
C531        H544   1.084       .  S
C532        C533   1.411       .  A
C532        C535   1.493       .  S
C533        C534   1.403       .  A
C533        H545   1.080       .  S
C534        H546   1.083       .  S
C535        C536   1.349       .  D
C535        H547   1.085       .  S
C536        C537   1.492       .  S
C536        H548   1.084       .  S
C537        C538   1.404       .  A
C537        C542   1.409       .  A
C538        C539   1.401       .  A
C538        H549   1.083       .  S
C539        C540   1.406       .  A
C539        H550   1.083       .  S
C540        C541   1.406       .  A
C541        C542   1.399       .  A
C541        H551   1.083       .  S
C542        H552   1.081       .  S
C553        C554   1.406       .  A
C553        C558   1.406       .  A
C554        C555   1.403       .  A
C554        H567   1.083       .  S
C555        C556   1.404       .  A
C555        H568   1.083       .  S
C556        C557   1.406       .  A
C556        C559   1.488       .  S
C557        C558   1.396       .  A
C557        H569   1.082       .  S
C558        H570   1.083       .  S
C559        C560   1.347       .  D
C559        H571   1.085       .  S
C560        C561   1.487       .  S
C560        H572   1.087       .  S
C561        C562   1.402       .  A
C561        C566   1.409       .  A
C562        C563   1.394       .  A
C562        H573   1.084       .  S
C563        C564   1.405       .  A
C563        H574   1.083       .  S
C564        C565   1.407       .  A
C565        C566   1.404       .  A
C565        H575   1.083       .  S
C566        H576   1.081       .  S
C577        C578   1.406       .  A
C577        C582   1.405       .  A
C578        C579   1.401       .  A
C578        H591   1.083       .  S
C579        C580   1.404       .  A
C579        H592   1.083       .  S
C580        C581   1.408       .  A
C580        C583   1.489       .  S
C581        C582   1.397       .  A
C581        H593   1.082       .  S
C582        H594   1.083       .  S
C583        C584   1.347       .  D
C583        H595   1.085       .  S
C584        C585   1.487       .  S
C584        H596   1.086       .  S
C585        C586   1.402       .  A
C585        C590   1.410       .  A
C586        C587   1.394       .  A
C586        H597   1.083       .  S
C587        C588   1.405       .  A
C587        H598   1.083       .  S
C588        C589   1.406       .  A
C589        C590   1.403       .  A
C589        H599   1.083       .  S
C590        H600   1.081       .  S
C601        C602   1.405       .  A
C601        C606   1.404       .  A
C602        C603   1.398       .  A
C602        H615   1.083       .  S
C603        C604   1.404       .  A
C603        H616   1.084       .  S
C604        C605   1.411       .  A
C604        C607   1.494       .  S
C605        C606   1.402       .  A
C605        H617   1.080       .  S
C606        H618   1.083       .  S
C607        C608   1.348       .  D
C607        H619   1.086       .  S
C608        C609   1.490       .  S
C608        H620   1.084       .  S
C609        C610   1.402       .  A
C609        C614   1.410       .  A
C610        C611   1.397       .  A
C610        H621   1.084       .  S
C611        C612   1.407       .  A
C611        H622   1.083       .  S
C612        C613   1.406       .  A
C613        C614   1.403       .  A
C613        H623   1.083       .  S
C614        H624   1.082       .  S
C625        C626   1.405       .  A
C625        C630   1.407       .  A
C626        C627   1.395       .  A
C626        H639   1.083       .  S
C627        C628   1.402       .  A
C627        H640   1.083       .  S
C628        C629   1.409       .  A
C628        C631   1.488       .  S
C629        C630   1.405       .  A
C629        H641   1.082       .  S
C630        H642   1.083       .  S
C631        C632   1.347       .  D
C631        H643   1.086       .  S
C632        C633   1.490       .  S
C632        H644   1.086       .  S
C633        C634   1.404       .  A
C633        C638   1.407       .  A
C634        C635   1.402       .  A
C634        H645   1.084       .  S
C635        C636   1.407       .  A
C635        H646   1.083       .  S
C636        C637   1.406       .  A
C637        C638   1.398       .  A
C637        H647   1.083       .  S
C638        H648   1.082       .  S
C649        C650   1.405       .  A
C649        C654   1.405   1_455  A
C650        C651   1.395   1_455  A
C650        H663   1.083       .  S
C651        C652   1.403       .  A
C651        H664   1.084       .  S
C652        C653   1.410       .  A
C652        C655   1.489       .  S
C653        C654   1.403       .  A
C653        H665   1.081       .  S
C654        H666   1.083   1_655  S
C655        C656   1.347       .  D
C655        H667   1.086       .  S
C656        C657   1.489       .  S
C656        H668   1.085       .  S
C657        C658   1.403       .  A
C657        C662   1.408       .  A
C658        C659   1.400       .  A
C658        H669   1.083       .  S
C659        C660   1.407       .  A
C659        H670   1.083       .  S
C660        C661   1.405       .  A
C661        C662   1.398       .  A
C661        H671   1.083       .  S
C662        H672   1.082       .  S
C673        C674   1.407       .  A
C673        C678   1.404       .  A
C674        C675   1.399       .  A
C674        H687   1.083       .  S
C675        C676   1.402       .  A
C675        H688   1.084       .  S
C676        C677   1.407       .  A
C676        C679   1.484       .  S
C677        C678   1.396       .  A
C677        H689   1.082       .  S
C678        H690   1.083       .  S
C679        C680   1.347       .  D
C679        H691   1.084       .  S
C680        C681   1.487       .  S
C680        H692   1.086       .  S
C681        C682   1.404       .  A
C681        C686   1.410   1_455  A
C682        C683   1.395   1_455  A
C682        H693   1.084       .  S
C683        C684   1.404       .  A
C683        H694   1.083       .  S
C684        C685   1.403       .  A
C685        C686   1.399       .  A
C685        H695   1.083       .  S
C686        H696   1.080       .  S
C697        C698   1.406       .  A
C697        C702   1.404       .  A
C698        C699   1.396       .  A
C698        H711   1.083       .  S
C699        C700   1.403       .  A
C699        H712   1.084       .  S
C700        C701   1.411       .  A
C700        C703   1.491       .  S
C701        C702   1.403       .  A
C701        H713   1.081       .  S
C702        H714   1.083       .  S
C703        C704   1.346       .  D
C703        H715   1.086       .  S
C704        C705   1.488       .  S
C704        H716   1.085       .  S
C705        C706   1.401       .  A
C705        C710   1.409       .  A
C706        C707   1.397       .  A
C706        H717   1.084       .  S
C707        C708   1.407       .  A
C707        H718   1.083       .  S
C708        C709   1.406       .  A
C709        C710   1.402       .  A
C709        H719   1.083       .  S
C710        H720   1.082       .  S
C721        C722   1.406       .  A
C721        C726   1.406       .  A
C722        C723   1.401       .  A
C722        H735   1.083       .  S
C723        C724   1.404       .  A
C723        H736   1.083       .  S
C724        C725   1.408       .  A
C724        C727   1.491       .  S
C725        C726   1.399       .  A
C725        H737   1.081   1_455  S
C726        H738   1.083       .  S
C727        C728   1.349   1_455  D
C727        H739   1.084       .  S
C728        C729   1.493       .  S
C728        H740   1.085       .  S
C729        C730   1.404       .  A
C729        C734   1.410       .  A
C730        C731   1.396       .  A
C730        H741   1.084       .  S
C731        C732   1.406       .  A
C731        H742   1.083       .  S
C732        C733   1.407       .  A
C733        C734   1.404       .  A
C733        H743   1.083       .  S
C734        H744   1.080   1_655  S
C745        C746   1.405       .  A
C745        C750   1.407       .  A
C746        C747   1.398       .  A
C746        H759   1.083       .  S
C747        C748   1.405       .  A
C747        H760   1.083       .  S
C748        C749   1.409       .  A
C748        C751   1.492       .  S
C749        C750   1.401       .  A
C749        H761   1.080       .  S
C750        H762   1.083       .  S
C751        C752   1.351       .  D
C751        H763   1.085       .  S
C752        C753   1.492       .  S
C752        H764   1.084       .  S
C753        C754   1.406       .  A
C753        C758   1.408       .  A
C754        C755   1.402       .  A
C754        H765   1.083       .  S
C755        C756   1.404       .  A
C755        H766   1.083       .  S
C756        C757   1.405       .  A
C757        C758   1.397       .  A
C757        H767   1.083       .  S
C758        H768   1.081       .  S
C769        C770   1.406       .  A
C769        C774   1.405       .  A
C770        C771   1.399       .  A
C770        H783   1.083       .  S
C771        C772   1.403       .  A
C771        H784   1.083       .  S
C772        C773   1.409       .  A
C772        C775   1.489       .  S
C773        C774   1.398       .  A
C773        H785   1.081       .  S
C774        H786   1.083       .  S
C775        C776   1.348       .  D
C775        H787   1.083       .  S
C776        C777   1.491       .  S
C776        H788   1.085       .  S
C777        C778   1.404       .  A
C777        C782   1.411       .  A
C778        C779   1.396       .  A
C778        H789   1.084       .  S
C779        C780   1.405       .  A
C779        H790   1.083       .  S
C780        C781   1.405       .  A
C781        C782   1.401       .  A
C781        H791   1.083       .  S
C782        H792   1.080       .  S
C793        C794   1.407       .  A
C793        C798   1.406       .  A
C794        C795   1.395   1_565  A
C794        H807   1.083   1_565  S
C795        C796   1.401       .  A
C795        H808   1.083       .  S
C796        C797   1.410   1_545  A
C796        C799   1.489       .  S
C797        C798   1.405       .  A
C797        H809   1.082       .  S
C798        H810   1.082       .  S
C799        C800   1.346       .  D
C799        H811   1.086       .  S
C800        C801   1.489       .  S
C800        H812   1.085       .  S
C801        C802   1.403       .  A
C801        C806   1.408       .  A
C802        C803   1.399       .  A
C802        H813   1.083       .  S
C803        C804   1.407       .  A
C803        H814   1.083       .  S
C804        C805   1.406       .  A
C805        C806   1.401       .  A
C805        H815   1.083       .  S
C806        H816   1.082       .  S
C817        C818   1.405       .  A
C817        C822   1.405       .  A
C818        C819   1.403       .  A
C818        H831   1.083       .  S
C819        C820   1.406       .  A
C819        H832   1.083       .  S
C820        C821   1.408       .  A
C820        C823   1.492       .  S
C821        C822   1.396       .  A
C821        H833   1.081       .  S
C822        H834   1.083       .  S
C823        C824   1.350       .  D
C823        H835   1.084       .  S
C824        C825   1.491       .  S
C824        H836   1.085       .  S
C825        C826   1.404       .  A
C825        C830   1.409       .  A
C826        C827   1.396       .  A
C826        H837   1.083       .  S
C827        C828   1.405       .  A
C827        H838   1.083       .  S
C828        C829   1.407       .  A
C829        C830   1.403       .  A
C829        H839   1.083       .  S
C830        H840   1.080       .  S
C841        C842   1.406       .  A
C841        C846   1.405       .  A
C842        C843   1.402       .  A
C842        H855   1.083       .  S
C843        C844   1.405   1_565  A
C843        H856   1.083       .  S
C844        C845   1.407       .  A
C844        C847   1.490       .  S
C845        C846   1.396   1_545  A
C845        H857   1.082       .  S
C846        H858   1.083       .  S
C847        C848   1.350       .  D
C847        H859   1.084       .  S
C848        C849   1.490       .  S
C848        H860   1.085       .  S
C849        C850   1.405       .  A
C849        C854   1.408       .  A
C850        C851   1.397       .  A
C850        H861   1.084       .  S
C851        C852   1.405       .  A
C851        H862   1.083       .  S
C852        C853   1.407       .  A
C853        C854   1.401       .  A
C853        H863   1.083       .  S
C854        H864   1.081       .  S
C865        C866   1.405       .  A
C865        C870   1.406       .  A
C866        C867   1.397       .  A
C866        H879   1.083       .  S
C867        C868   1.404       .  A
C867        H880   1.083       .  S
C868        C869   1.409       .  A
C868        C871   1.490       .  S
C869        C870   1.402       .  A
C869        H881   1.081       .  S
C870        H882   1.083       .  S
C871        C872   1.349       .  D
C871        H883   1.085       .  S
C872        C873   1.491       .  S
C872        H884   1.085       .  S
C873        C874   1.404       .  A
C873        C878   1.409       .  A
C874        C875   1.400       .  A
C874        H885   1.083       .  S
C875        C876   1.406       .  A
C875        H886   1.083       .  S
C876        C877   1.405       .  A
C877        C878   1.399       .  A
C877        H887   1.083       .  S
C878        H888   1.081       .  S
C889        C890   1.406       .  A
C889        C894   1.406       .  A
C890        C891   1.397       .  A
C890        H903   1.083       .  S
C891        C892   1.403       .  A
C891        H904   1.083       .  S
C892        C893   1.410       .  A
C892        C895   1.491       .  S
C893        C894   1.404       .  A
C893        H905   1.081       .  S
C894        H906   1.083       .  S
C895        C896   1.348       .  D
C895        H907   1.086       .  S
C896        C897   1.491       .  S
C896        H908   1.085       .  S
C897        C898   1.404       .  A
C897        C902   1.408   1_455  A
C898        C899   1.401       .  A
C898        H909   1.083       .  S
C899        C900   1.407   1_455  A
C899        H910   1.083       .  S
C900        C901   1.406       .  A
C901        C902   1.400       .  A
C901        H911   1.083       .  S
C902        H912   1.082       .  S
C913        C914   1.406   1_565  A
C913        C918   1.406       .  A
C914        C915   1.399       .  A
C914        H927   1.083       .  S
C915        C916   1.403   1_545  A
C915        H928   1.084       .  S
C916        C917   1.409       .  A
C916        C919   1.489   1_565  S
C917        C918   1.401       .  A
C917        H929   1.082       .  S
C918        H930   1.083       .  S
C919        C920   1.349   1_545  D
C919        H931   1.083       .  S
C920        C921   1.494   1_565  S
C920        H932   1.086       .  S
C921        C922   1.404   1_545  A
C921        C926   1.412       .  A
C922        C923   1.397       .  A
C922        H933   1.084       .  S
C923        C924   1.405   1_565  A
C923        H934   1.083       .  S
C924        C925   1.405       .  A
C925        C926   1.403       .  A
C925        H935   1.083       .  S
C926        H936   1.080       .  S
C937        C938   1.405       .  A
C937        C942   1.406       .  A
C938        C939   1.396       .  A
C938        H951   1.083       .  S
C939        C940   1.403       .  A
C939        H952   1.084       .  S
C940        C941   1.409       .  A
C940        C943   1.490       .  S
C941        C942   1.402       .  A
C941        H953   1.081       .  S
C942        H954   1.083       .  S
C943        C944   1.349       .  D
C943        H955   1.085       .  S
C944        C945   1.489       .  S
C944        H956   1.084       .  S
C945        C946   1.404       .  A
C945        C950   1.408       .  A
C946        C947   1.399       .  A
C946        H957   1.083       .  S
C947        C948   1.406       .  A
C947        H958   1.083       .  S
C948        C949   1.406       .  A
C949        C950   1.398       .  A
C949        H959   1.083       .  S
C950        H960   1.081       .  S
C961        C962   1.408       .  A
C961        C966   1.406       .  A
C962        C963   1.403       .  A
C962        H975   1.083       .  S
C963        C964   1.405       .  A
C963        H976   1.083       .  S
C964        C965   1.407       .  A
C964        C967   1.491       .  S
C965        C966   1.396       .  A
C965        H977   1.082       .  S
C966        H978   1.083       .  S
C967        C968   1.349   1_545  D
C967        H979   1.085       .  S
C968        C969   1.489       .  S
C968        H980   1.086       .  S
C969        C970   1.403       .  A
C969        C974   1.409   1_565  A
C970        C971   1.395       .  A
C970        H981   1.083       .  S
C971        C972   1.405       .  A
C971        H982   1.083       .  S
C972        C973   1.408       .  A
C973        C974   1.405   1_565  A
C973        H983   1.083   1_565  S
C974        H984   1.081       .  S
C985        C986   1.406       .  A
C985        C990   1.406       .  A
C986        C987   1.399       .  A
C986        H999   1.083       .  S
C987        C988   1.405       .  A
C987       H1000   1.083       .  S
C988        C989   1.410       .  A
C988        C991   1.493       .  S
C989        C990   1.401       .  A
C989       H1001   1.080       .  S
C990       H1002   1.083       .  S
C991        C992   1.350       .  D
C991       H1003   1.083       .  S
C992        C993   1.494       .  S
C992       H1004   1.084       .  S
C993        C994   1.406       .  A
C993        C998   1.411       .  A
C994        C995   1.399       .  A
C994       H1005   1.083       .  S
C995        C996   1.404   1_565  A
C995       H1006   1.083       .  S
C996        C997   1.405       .  A
C997        C998   1.401   1_545  A
C997       H1007   1.083       .  S
C998       H1008   1.080       .  S
C1009      C1010   1.406       .  A
C1009      C1014   1.406       .  A
C1010      C1011   1.397       .  A
C1010      H1023   1.083       .  S
C1011      C1012   1.403       .  A
C1011      H1024   1.083       .  S
C1012      C1013   1.409       .  A
C1012      C1015   1.490       .  S
C1013      C1014   1.401       .  A
C1013      H1025   1.081       .  S
C1014      H1026   1.083       .  S
C1015      C1016   1.349       .  D
C1015      H1027   1.084       .  S
C1016      C1017   1.491       .  S
C1016      H1028   1.084       .  S
C1017      C1018   1.404       .  A
C1017      C1022   1.409       .  A
C1018      C1019   1.399       .  A
C1018      H1029   1.083       .  S
C1019      C1020   1.405       .  A
C1019      H1030   1.083       .  S
C1020      C1021   1.406       .  A
C1021      C1022   1.400       .  A
C1021      H1031   1.083       .  S
C1022      H1032   1.081       .  S
C1033      C1034   1.406       .  A
C1033      C1038   1.407   1_455  A
C1034      C1035   1.394       .  A
C1034      H1047   1.083       .  S
C1035      C1036   1.401   1_455  A
C1035      H1048   1.084       .  S
C1036      C1037   1.410       .  A
C1036      C1039   1.487       .  S
C1037      C1038   1.404       .  A
C1037      H1049   1.082       .  S
C1038      H1050   1.083       .  S
C1039      C1040   1.347       .  D
C1039      H1051   1.086       .  S
C1040      C1041   1.489       .  S
C1040      H1052   1.085       .  S
C1041      C1042   1.403       .  A
C1041      C1046   1.408       .  A
C1042      C1043   1.400       .  A
C1042      H1053   1.083       .  S
C1043      C1044   1.406       .  A
C1043      H1054   1.083       .  S
C1044      C1045   1.405       .  A
C1045      C1046   1.398       .  A
C1045      H1055   1.083       .  S
C1046      H1056   1.082       .  S
C1057      C1058   1.405       .  A
C1057      C1062   1.404       .  A
C1058      C1059   1.397       .  A
C1058      H1071   1.083       .  S
C1059      C1060   1.405       .  A
C1059      H1072   1.083       .  S
C1060      C1061   1.411       .  A
C1060      C1063   1.493       .  S
C1061      C1062   1.400       .  A
C1061      H1073   1.079       .  S
C1062      H1074   1.083       .  S
C1063      C1064   1.349       .  D
C1063      H1075   1.085       .  S
C1064      C1065   1.489       .  S
C1064      H1076   1.083       .  S
C1065      C1066   1.403       .  A
C1065      C1070   1.409       .  A
C1066      C1067   1.397       .  A
C1066      H1077   1.083       .  S
C1067      C1068   1.406       .  A
C1067      H1078   1.083       .  S
C1068      C1069   1.405       .  A
C1069      C1070   1.401       .  A
C1069      H1079   1.083       .  S
C1070      H1080   1.081       .  S
C1081      C1082   1.405       .  A
C1081      C1086   1.404       .  A
C1082      C1083   1.394       .  A
C1082      H1095   1.083       .  S
C1083      C1084   1.402       .  A
C1083      H1096   1.084       .  S
C1084      C1085   1.410       .  A
C1084      C1087   1.487       .  S
C1085      C1086   1.403       .  A
C1085      H1097   1.081       .  S
C1086      H1098   1.083       .  S
C1087      C1088   1.346       .  D
C1087      H1099   1.086       .  S
C1088      C1089   1.487       .  S
C1088      H1100   1.085       .  S
C1089      C1090   1.403       .  A
C1089      C1094   1.408   1_565  A
C1090      C1091   1.399   1_565  A
C1090      H1101   1.083       .  S
C1091      C1092   1.406       .  A
C1091      H1102   1.083       .  S
C1092      C1093   1.406       .  A
C1093      C1094   1.398       .  A
C1093      H1103   1.083       .  S
C1094      H1104   1.082       .  S
C1105      C1106   1.406       .  A
C1105      C1110   1.406       .  A
C1106      C1107   1.402       .  A
C1106      H1119   1.083       .  S
C1107      C1108   1.405       .  A
C1107      H1120   1.083       .  S
C1108      C1109   1.407       .  A
C1108      C1111   1.491       .  S
C1109      C1110   1.397       .  A
C1109      H1121   1.082       .  S
C1110      H1122   1.083       .  S
C1111      C1112   1.349   1_455  D
C1111      H1123   1.085       .  S
C1112      C1113   1.489       .  S
C1112      H1124   1.086       .  S
C1113      C1114   1.404       .  A
C1113      C1118   1.408   1_655  A
C1114      C1115   1.397       .  A
C1114      H1125   1.083       .  S
C1115      C1116   1.405       .  A
C1115      H1126   1.083       .  S
C1116      C1117   1.407       .  A
C1117      C1118   1.402   1_655  A
C1117      H1127   1.083   1_655  S
C1118      H1128   1.082       .  S
C1129      C1130   1.407       .  A
C1129      C1134   1.406       .  A
C1130      C1131   1.398       .  A
C1130      H1143   1.083       .  S
C1131      C1132   1.403       .  A
C1131      H1144   1.083       .  S
C1132      C1133   1.410       .  A
C1132      C1135   1.493       .  S
C1133      C1134   1.403       .  A
C1133      H1145   1.081       .  S
C1134      H1146   1.083       .  S
C1135      C1136   1.349       .  D
C1135      H1147   1.084       .  S
C1136      C1137   1.495       .  S
C1136      H1148   1.085       .  S
C1137      C1138   1.405       .  A
C1137      C1142   1.411       .  A
C1138      C1139   1.399       .  A
C1138      H1149   1.083       .  S
C1139      C1140   1.405   1_655  A
C1139      H1150   1.083       .  S
C1140      C1141   1.406       .  A
C1141      C1142   1.402   1_455  A
C1141      H1151   1.083       .  S
C1142      H1152   1.080       .  S
