geometry optimzed in LAMMPS
_audit_creation_date              2020-11-30 
_audit_creation_method            'lammps2cif' 
_symmetry_space_group_name_H-M    'P1' 
_symmetry_Int_Tables_number       1 
_symmetry_cell_setting            triclinic 
loop_ 
_symmetry_equiv_pos_as_xyz 
  x,y,z 
_cell_length_a                    33.67049767 
_cell_length_b                    33.362661118562656 
_cell_length_c                    56.537203906729864 
_cell_angle_alpha                 89.29756700030612 
_cell_angle_beta                  90.17976170157533 
_cell_angle_gamma                 90.17546610941345 
loop_ 
_atom_site_label 
_atom_site_type_symbol 
_atom_site_fract_x 
_atom_site_fract_y 
_atom_site_fract_z 
_atom_site_charge 
In1        In  0.37295993  0.80821947  0.81785435     1.36900
C2          C  0.45197086  0.80590487  0.81790522     0.78800
O3          O  0.37630317  0.79459757  0.77899808    -0.59600
O4          O  0.34448635  0.84618367  0.78951321    -0.50500
C5          C  0.31795158  0.75193489  0.82552077     0.71500
O6          O  0.35412887  0.74325162  0.82268738    -0.45400
C7          C  0.36605293  0.85783283  0.85398762     0.76200
O8          O  0.43151709  0.77588709  0.82439893    -0.57300
O9          O  0.36038319  0.86883783  0.83285093    -0.47400
O10         O  0.43204175  0.83590862  0.81139308    -0.53700
C11         C  0.35618043  0.82475242  0.77273299     0.86400
O12         O  0.31057695  0.78887426  0.82500542    -0.55600
O13         O  0.37435224  0.82125221  0.85683151    -0.58900
In14       In  0.64098188  0.79401352  0.81864316     1.36900
C15         C  0.56326644  0.78269455  0.82295683     0.78800
O16         O  0.64478271  0.81108486  0.85699016    -0.59600
O17         O  0.64992632  0.85736467  0.83097599    -0.50500
C18         C  0.70228999  0.74507765  0.82436720     0.71500
O19         O  0.66686151  0.73336340  0.82714571    -0.45400
C20         C  0.64518705  0.80208854  0.77177605     0.76200
O21         O  0.58787734  0.75605065  0.82929564    -0.57300
O22         O  0.65970920  0.82763091  0.78570963    -0.47400
O23         O  0.57873271  0.81444710  0.81481748    -0.53700
C24         C  0.64870538  0.84802016  0.85265034     0.86400
O25         O  0.70615066  0.78178771  0.81949073    -0.55600
O26         O  0.62873825  0.77254812  0.78182104    -0.58900
In27       In  0.68626977  0.11708533  0.66093031     1.36900
C28         C  0.69917080  0.03795646  0.65889807     0.78800
O29         O  0.69681431  0.11214652  0.70045151    -0.59600
O30         O  0.64407402  0.14027802  0.68845217    -0.50500
C31         C  0.73901589  0.17659498  0.65630033     0.71500
O32         O  0.74905140  0.14019363  0.65569746    -0.45400
C33         C  0.63889545  0.12470309  0.62312274     0.76200
O34         O  0.72638027  0.06338999  0.65533796    -0.57300
O35         O  0.62603526  0.12433180  0.64400681    -0.47400
O36         O  0.66599010  0.05306558  0.66382419    -0.53700
C37         C  0.66503699  0.12965906  0.70590661     0.86400
O38         O  0.70234262  0.18226640  0.65877264    -0.55600
O39         O  0.67606918  0.12196028  0.62138779    -0.58900
In40       In  0.68149330  0.84438054  0.66242877     1.36900
C41         C  0.67870849  0.92419573  0.66018672     0.78800
O42         O  0.66577583  0.84376058  0.62374338    -0.59600
O43         O  0.62242807  0.82327153  0.64848569    -0.50500
C44         C  0.73736654  0.78872321  0.65642317     0.71500
O45         O  0.74485467  0.82573699  0.65393975    -0.45400
C46         C  0.67372410  0.83649974  0.70911294     0.76200
O47         O  0.71035037  0.90526609  0.65574439    -0.57300
O48         O  0.64941315  0.82084915  0.69483485    -0.47400
O49         O  0.64927496  0.90230372  0.66517498    -0.53700
C50         C  0.63108812  0.83051981  0.62714390     0.86400
O51         O  0.70166075  0.78075569  0.66104140    -0.55600
O52         O  0.70148113  0.85601556  0.69949135    -0.58900
In53       In  0.33638068  0.84496440  0.66024692     1.36900
C54         C  0.33121219  0.92428251  0.65692249     0.78800
O55         O  0.33081613  0.85412210  0.69931959    -0.59600
O56         O  0.36778958  0.80699687  0.68772245    -0.50500
C57         C  0.27281706  0.79756572  0.65610644     0.71500
O58         O  0.27027318  0.83386793  0.66172003    -0.45400
C59         C  0.38915554  0.83538116  0.62581882     0.76200
O60         O  0.30556190  0.90139083  0.64791989    -0.57300
O61         O  0.39844604  0.83353563  0.64739446    -0.47400
O62         O  0.35929784  0.90651762  0.66744646    -0.53700
C63         C  0.35335371  0.82547873  0.70497891     0.86400
O64         O  0.30758918  0.78611024  0.65158474    -0.55600
O65         O  0.35279271  0.84106803  0.62172073    -0.58900
In66       In  0.35686374  0.11495849  0.66310842     1.36900
C67         C  0.35591923  0.03559949  0.66369052     0.78800
O68         O  0.36965146  0.11210137  0.62442576    -0.59600
O69         O  0.41581206  0.13122570  0.64766806    -0.50500
C70         C  0.30196999  0.17059711  0.65568859     0.71500
O71         O  0.29358985  0.13362791  0.65593445    -0.45400
C72         C  0.36917142  0.12930158  0.70845160     0.76200
O73         O  0.32618934  0.05580183  0.65683639    -0.57300
O74         O  0.39276221  0.14113822  0.69252629    -0.47400
O75         O  0.38536429  0.05602464  0.67026386    -0.53700
C76         C  0.40523180  0.12310492  0.62686735     0.86400
O77         O  0.33822891  0.17860897  0.65835119    -0.55600
O78         O  0.33951455  0.10974547  0.70117295    -0.58900
In79       In  0.37465593  0.14832542  0.82082539     1.36900
C80         C  0.45321023  0.14121913  0.82060022     0.78800
O81         O  0.37752915  0.13414021  0.85980900    -0.59600
O82         O  0.35048321  0.09175377  0.83695218    -0.50500
C83         C  0.32897790  0.21285238  0.82665268     0.71500
O84         O  0.36628668  0.21524309  0.82534685    -0.45400
C85         C  0.35982364  0.13252417  0.77569690     0.76200
O86         O  0.43624377  0.17351051  0.82617104    -0.57300
O87         O  0.34300893  0.11381322  0.79239104    -0.47400
O88         O  0.43003427  0.11294246  0.81542953    -0.53700
C89         C  0.36123410  0.10031139  0.85763458     0.86400
O90         O  0.31554116  0.17762678  0.82573388    -0.55600
O91         O  0.38333266  0.15978904  0.78210824    -0.58900
In92       In  0.64351417  0.15064190  0.81874188     1.36900
C93         C  0.56544167  0.15979787  0.82343990     0.78800
O94         O  0.63258048  0.15424367  0.77925696    -0.59600
O95         O  0.68329371  0.12292157  0.79143075    -0.50500
C96         C  0.69086439  0.21363434  0.82538992     0.71500
O97         O  0.65552910  0.21707880  0.81831791    -0.45400
C98         C  0.65277882  0.09485792  0.85227089     0.76200
O99         O  0.59001429  0.18637112  0.82948140    -0.57300
O100        O  0.65160979  0.08667254  0.83060669    -0.47400
O101        O  0.58083538  0.12862119  0.81507433    -0.53700
C102        C  0.66307415  0.13456597  0.77391708     0.86400
O103        O  0.70155189  0.17811668  0.82976022    -0.55600
O104        O  0.65009001  0.13157593  0.85691111    -0.58900
C105        C  0.35879439  0.97360670  0.94440175     0.87700
C106        C  0.34529676  0.01027702  0.92957078    -0.52500
C107        C  0.36323978  0.01291442  0.90799396     0.10600
C108        C  0.39226703  0.97874803  0.90282607     0.21600
C109        C  0.35009626  0.93745280  0.92830353    -0.53200
C110        C  0.36790553  0.94033211  0.90667793     0.10700
C111        C  0.40431724  0.97681596  0.94508783    -0.52800
C112        C  0.42193757  0.97946822  0.92345425     0.11300
H113        H  0.32414356  0.03238908  0.93559327     0.15800
H114        H  0.40637621  0.98111575  0.88511391     0.01600
H115        H  0.33151192  0.91212064  0.93327551     0.16100
H116        H  0.42121448  0.97634799  0.96149992     0.15900
C117        C  0.36381979  0.96569582  0.04491165     0.87700
C118        C  0.35614628  0.92707319  0.05945585    -0.52500
C119        C  0.37557682  0.92604372  0.08063424     0.10600
C120        C  0.40065419  0.96357856  0.08571044     0.21600
C121        C  0.35179134  0.99972982  0.06171062    -0.53200
C122        C  0.37135681  0.99858709  0.08293182     0.10700
C123        C  0.40921962  0.96890284  0.04322609    -0.52800
C124        C  0.42874168  0.96808245  0.06441532     0.11300
H125        H  0.33666455  0.90295156  0.05389344     0.15800
H126        H  0.41607018  0.96279118  0.10311272     0.01600
H127        H  0.33037612  0.02287451  0.05721262     0.16100
H128        H  0.42457702  0.97143752  0.02639341     0.15900
C129        C  0.65804871  0.97052596  0.94006934     0.87700
C130        C  0.66528684  0.93298560  0.92488513    -0.52500
C131        C  0.64570047  0.93388937  0.90366494     0.10600
C132        C  0.62089630  0.97185545  0.89934585     0.21600
C133        C  0.67019205  0.00586525  0.92373048    -0.53200
C134        C  0.65048589  0.00644780  0.90257185     0.10700
C135        C  0.61271261  0.97363162  0.94189706    -0.52800
C136        C  0.59310909  0.97466514  0.92077727     0.11300
H137        H  0.68475974  0.90846597  0.92991785     0.15800
H138        H  0.60528899  0.97266888  0.88199762     0.01600
H139        H  0.69173564  0.02864801  0.92855549     0.16100
H140        H  0.59742092  0.97497119  0.95876617     0.15900
C141        C  0.66352767  0.97010771  0.04096579     0.87700
C142        C  0.67602839  0.00592145  0.05640597    -0.52500
C143        C  0.65855958  0.00587717  0.07820173     0.10600
C144        C  0.63064137  0.97008534  0.08285250     0.21600
C145        C  0.67373327  0.93290314  0.05635196    -0.53200
C146        C  0.65632593  0.93302269  0.07814866     0.10700
C147        C  0.61798069  0.97146522  0.04062382    -0.52800
C148        C  0.60053286  0.97166650  0.06234618     0.11300
H149        H  0.69628364  0.02939536  0.05058437     0.15800
H150        H  0.61678327  0.97021994  0.10066393     0.01600
H151        H  0.69316044  0.90889212  0.05086505     0.16100
H152        H  0.60091772  0.97202430  0.02427110     0.15900
C153        C  0.51042845  0.82420001  0.53806297     0.87700
C154        C  0.54606538  0.81182043  0.55387664    -0.52500
C155        C  0.54690788  0.83090109  0.57518012     0.10600
C156        C  0.51250505  0.86020762  0.57889227     0.21600
C157        C  0.47372368  0.81581061  0.55373194    -0.50000
C158        C  0.47493342  0.83496617  0.57494541     0.10700
C159        C  0.51302801  0.86997461  0.53638611    -0.52800
C160        C  0.51453433  0.88903510  0.55753297     0.11300
H161        H  0.56852260  0.79035940  0.54876505     0.15800
H162        H  0.51353254  0.87532450  0.59628735     0.01600
H163        H  0.44916769  0.79652379  0.54871586     0.16100
H164        H  0.51338791  0.88594777  0.51952202     0.15900
C165        C  0.50771515  0.82742036  0.43691982     0.87700
C166        C  0.47111008  0.81637665  0.42171042    -0.52500
C167        C  0.47070231  0.83460349  0.39992740     0.10600
C168        C  0.50656231  0.86194428  0.39510812     0.21600
C169        C  0.54353209  0.81661258  0.42116265    -0.53200
C170        C  0.54273168  0.83503244  0.39942638     0.10700
C171        C  0.50793087  0.87339431  0.43738069    -0.52800
C172        C  0.50762546  0.89155405  0.41564174     0.11300
H173        H  0.44800860  0.79566876  0.42738906     0.15800
H174        H  0.50629630  0.87656722  0.37733627     0.01600
H175        H  0.56750717  0.79686909  0.42662242     0.16100
H176        H  0.50879377  0.89018674  0.45373090     0.15900
C177        C  0.51558806  0.12623832  0.53483347     0.87700
C178        C  0.48146520  0.13638596  0.55174918    -0.52500
C179        C  0.48462540  0.11791423  0.57327001     0.10600
C180        C  0.52135030  0.09131938  0.57633394     0.21600
C181        C  0.55362625  0.13781309  0.54876870    -0.53200
C182        C  0.55631365  0.11924543  0.57046714     0.10700
C183        C  0.51632767  0.08034980  0.53416062    -0.52800
C184        C  0.51952358  0.06190232  0.55570219     0.11300
H185        H  0.45707613  0.15629147  0.54719735     0.15800
H186        H  0.52371217  0.07663896  0.59403472     0.01600
H187        H  0.57584327  0.15898707  0.54251572     0.16100
H188        H  0.51404548  0.06382652  0.51775846     0.15900
C189        C  0.50288953  0.12748212  0.43420036     0.87700
C190        C  0.53603600  0.14287982  0.41767141    -0.52500
C191        C  0.53623733  0.12492545  0.39616643     0.10600
C192        C  0.50306845  0.09374070  0.39267863     0.21600
C193        C  0.46431408  0.13425068  0.41984704    -0.53200
C194        C  0.46454619  0.11633437  0.39821422     0.10700
C195        C  0.50809705  0.08186663  0.43497249    -0.52800
C196        C  0.50825589  0.06402216  0.41342467     0.11300
H197        H  0.55769321  0.16557598  0.42240150     0.15800
H198        H  0.50334527  0.07947720  0.37501973     0.01600
H199        H  0.43911084  0.15123282  0.42616748     0.16100
H200        H  0.51066031  0.06499657  0.45147299     0.15900
In201      In  0.65406754  0.15002577  0.16057855     1.36900
C202        C  0.57551009  0.15689139  0.15779505     0.78800
O203        O  0.66339724  0.13142645  0.12262887    -0.59600
O204        O  0.66037348  0.08593163  0.14905360    -0.50500
C205        C  0.70087469  0.21330147  0.15339446     0.71500
O206        O  0.66374708  0.21607472  0.15527878    -0.45400
C207        C  0.67253370  0.13771084  0.20603013     0.76200
O208        O  0.59871796  0.18132282  0.14775350    -0.57300
O209        O  0.68643869  0.11658540  0.18970643    -0.47400
O210        O  0.59250537  0.12916190  0.16923003    -0.53700
C211        C  0.66357788  0.09446177  0.12741255     0.86400
O212        O  0.71403920  0.17790985  0.15432192    -0.55600
O213        O  0.64937072  0.16503778  0.19910397    -0.58900
In214      In  0.38595058  0.14002627  0.16619542     1.36900
C215        C  0.46455717  0.13589824  0.16553448     0.78800
O216        O  0.39599253  0.15947302  0.20360512    -0.59600
O217        O  0.35496462  0.11221533  0.19769764    -0.50500
C218        C  0.33948768  0.20305587  0.15711990     0.71500
O219        O  0.37676767  0.20596575  0.15830196    -0.45400
C220        C  0.37209114  0.08535936  0.13317063     0.76200
O221        O  0.44591971  0.16483620  0.15612223    -0.57300
O222        O  0.36370472  0.07944179  0.15464863    -0.47400
O223        O  0.44297683  0.10928371  0.17495673    -0.53700
C224        C  0.37176072  0.13479739  0.21247383     0.86400
O225        O  0.32639059  0.16779674  0.15936184    -0.55600
O226        O  0.38629348  0.11948667  0.12841872    -0.58900
In227      In  0.68698258  0.12886754  0.31925132     1.36900
C228        C  0.69379556  0.05016553  0.32482584     0.78800
O229        O  0.66264597  0.13375974  0.35614862    -0.59600
O230        O  0.62237054  0.13817736  0.32727721    -0.50500
C231        C  0.75000997  0.17568785  0.32638186     0.71500
O232        O  0.75281070  0.13889768  0.32210420    -0.45400
C233        C  0.67542736  0.14518986  0.27358809     0.76200
O234        O  0.71581789  0.07447710  0.33566502    -0.57300
O235        O  0.65989886  0.16548563  0.28976367    -0.47400
O236        O  0.66854903  0.06620934  0.31120949    -0.53700
C237        C  0.62714259  0.13689715  0.34933370     0.86400
O238        O  0.71486254  0.18837908  0.32785125    -0.55600
O239        O  0.69733692  0.11696569  0.28077518    -0.58900
In240      In  0.68290044  0.85876252  0.31652202     1.36900
C241        C  0.67623959  0.93776979  0.31777097     0.78800
O242        O  0.70378597  0.87046406  0.27946116    -0.59600
O243        O  0.65811791  0.82719435  0.28480487    -0.50500
C244        C  0.74439413  0.81118098  0.32513341     0.71500
O245        O  0.74772538  0.84889775  0.32504161    -0.45400
C246        C  0.62950596  0.84163759  0.34961342     0.76200
O247        O  0.70505265  0.91962828  0.32747592    -0.57300
O248        O  0.62197312  0.83867614  0.32783930    -0.47400
O249        O  0.65118390  0.91548625  0.30780230    -0.53700
C250        C  0.68068627  0.84519625  0.27032689     0.86400
O251        O  0.70960211  0.79836134  0.32180404    -0.55600
O252        O  0.66442957  0.85242784  0.35451849    -0.58900
In253      In  0.38303202  0.77479896  0.15995593     1.36900
C254        C  0.46085445  0.77012480  0.15457734     0.78800
O255        O  0.37978889  0.79703152  0.12223074    -0.59600
O256        O  0.36808035  0.83829345  0.14966330    -0.50500
C257        C  0.33272778  0.71425604  0.15328280     0.71500
O258        O  0.36967659  0.70932675  0.15484459    -0.45400
C259        C  0.37398051  0.78300771  0.20654096     0.76200
O260        O  0.43761766  0.74370098  0.14670239    -0.57300
O261        O  0.35487437  0.80378651  0.19160511    -0.47400
O262        O  0.44411431  0.79880459  0.16487297    -0.53700
C263        C  0.37226641  0.83262465  0.12783868     0.86400
O264        O  0.32170149  0.75029674  0.15412710    -0.55600
O265        O  0.39759201  0.75826598  0.19765697    -0.58900
In266      In  0.64944103  0.79078816  0.16311519     1.36900
C267        C  0.57114090  0.79317703  0.16155221     0.78800
O268        O  0.63914554  0.77194253  0.20087123    -0.59600
O269        O  0.67369332  0.82424211  0.19443070    -0.50500
C270        C  0.69859212  0.72964526  0.15593190     0.71500
O271        O  0.66139231  0.72551779  0.15548134    -0.45400
C272        C  0.66081754  0.84416868  0.12840357     0.76200
O273        O  0.59029418  0.76324899  0.15425200    -0.57300
O274        O  0.67274480  0.84992783  0.14924505    -0.47400
O275        O  0.59206400  0.82131329  0.16950631    -0.53700
C276        C  0.65798515  0.80096686  0.20952068     0.86400
O277        O  0.71032893  0.76508645  0.15914011    -0.55600
O278        O  0.64511723  0.81041889  0.12497889    -0.58900
In279      In  0.31492506  0.09973599  0.31928673     1.36900
C280        C  0.30873756  0.02047987  0.32331697     0.78800
O281        O  0.29816507  0.08924748  0.28142853    -0.59600
O282        O  0.34896196  0.12513728  0.28826007    -0.50500
C283        C  0.25580712  0.15210570  0.32504758     0.71500
O284        O  0.24993288  0.11502851  0.32304189    -0.45400
C285        C  0.37199884  0.11110797  0.35137530     0.76200
O286        O  0.28566456  0.04365610  0.33411247    -0.57300
O287        O  0.37772424  0.11528346  0.32949926    -0.47400
O288        O  0.33488812  0.03796558  0.31107251    -0.53700
C289        C  0.32688975  0.10892600  0.27300396     0.86400
O290        O  0.29189658  0.16222978  0.32482683    -0.55600
O291        O  0.33691838  0.10204030  0.35705803    -0.58900
In292      In  0.33240897  0.83022807  0.31374207     1.36900
C293        C  0.32994070  0.90948532  0.31313029     0.78800
O294        O  0.34963478  0.83120075  0.35218470    -0.59600
O295        O  0.39476532  0.81939011  0.32700343    -0.50500
C296        C  0.27749352  0.77481393  0.32243416     0.71500
O297        O  0.26903033  0.81169393  0.32135736    -0.45400
C298        C  0.33861259  0.81623942  0.26768383     0.76200
O299        O  0.30331111  0.88870854  0.32325155    -0.57300
O300        O  0.36311006  0.80225834  0.28263839    -0.47400
O301        O  0.35690522  0.88967088  0.30332035    -0.53700
C302        C  0.38588318  0.82470989  0.34840636     0.86400
O303        O  0.31382024  0.76694097  0.32014065    -0.55600
O304        O  0.31103383  0.83676468  0.27637161    -0.58900
In305      In  0.82871724  0.60339877  0.81767508     1.36900
C306        C  0.82083605  0.52459992  0.82361122     0.78800
O307        O  0.81526376  0.59117854  0.77937299    -0.59600
O308        O  0.85705954  0.63680073  0.78694786    -0.50500
C309        C  0.76766877  0.65184428  0.82485536     0.71500
O310        O  0.76417502  0.61425015  0.82487022    -0.45400
C311        C  0.88470377  0.61454281  0.85039529     0.76200
O312        O  0.79508884  0.54893639  0.83073618    -0.57300
O313        O  0.89267772  0.60908065  0.82895447    -0.47400
O314        O  0.85039207  0.54066485  0.81360363    -0.53700
C315        C  0.83862773  0.61746032  0.77131091     0.86400
O316        O  0.80259238  0.66463985  0.82170613    -0.55600
O317        O  0.84823712  0.61605552  0.85506055    -0.58900
In318      In  0.83881248  0.33304382  0.81903260     1.36900
C319        C  0.84150257  0.41223662  0.81947334     0.78800
O320        O  0.85579669  0.33622539  0.85712580    -0.59600
O321        O  0.89816497  0.31362120  0.83258529    -0.50500
C322        C  0.78561923  0.27631899  0.82802282     0.71500
O323        O  0.77624364  0.31300554  0.82703962    -0.45400
C324        C  0.84331633  0.32391746  0.77273087     0.76200
O325        O  0.81146008  0.39309654  0.82704756    -0.57300
O326        O  0.87031593  0.31167577  0.78661462    -0.47400
O327        O  0.86940624  0.39083457  0.81200184    -0.53700
C328        C  0.89035778  0.32310434  0.85362082     0.86400
O329        O  0.82202455  0.26924904  0.82535064    -0.55600
O330        O  0.81405756  0.34001730  0.78262058    -0.58900
In331      In  0.19391895  0.60664217  0.82125263     1.36900
C332        C  0.20168257  0.52737749  0.82539562     0.78800
O333        O  0.17234388  0.61504762  0.85874245    -0.59600
O334        O  0.12965020  0.61327756  0.83108520    -0.50500
C335        C  0.25681299  0.65475475  0.82647212     0.71500
O336        O  0.26012357  0.61823829  0.82144450    -0.45400
C337        C  0.17934673  0.62693785  0.77631939     0.76200
O338        O  0.22534440  0.55135259  0.83530935    -0.57300
O339        O  0.20018205  0.59707472  0.78212251    -0.47400
O340        O  0.17429780  0.54405092  0.81366905    -0.53700
C341        C  0.13619400  0.61629054  0.85290206     0.86400
O342        O  0.22164761  0.66592971  0.83009907    -0.55600
O343        O  0.16580267  0.64628387  0.79346456    -0.58900
In344      In  0.18270510  0.33561458  0.81664368     1.36900
C345        C  0.18117886  0.41502794  0.81774271     0.78800
O346        O  0.20783734  0.34526861  0.78040061    -0.59600
O347        O  0.15364290  0.31264797  0.78343320    -0.50500
C348        C  0.23534409  0.27794860  0.82476580     0.71500
O349        O  0.24486730  0.31462101  0.82609694    -0.45400
C350        C  0.13088292  0.32439675  0.85143207     0.76200
O351        O  0.21052447  0.39534158  0.82576407    -0.57300
O352        O  0.12177461  0.31905094  0.82999512    -0.47400
O353        O  0.15338233  0.39405114  0.80943198    -0.53700
C354        C  0.18040781  0.32665265  0.76996504     0.86400
O355        O  0.19928890  0.27147984  0.82016647    -0.55600
O356        O  0.16655599  0.33415993  0.85510992    -0.58900
In357      In  0.15051242  0.28530542  0.66001700     1.36900
C358        C  0.07277351  0.27935095  0.65415904     0.78800
O359        O  0.13390144  0.26670359  0.69702653    -0.59600
O360        O  0.17418461  0.31520736  0.69291237    -0.50500
C361        C  0.20389381  0.22780624  0.65363378     0.71500
O362        O  0.16707991  0.22150564  0.65221550    -0.45400
C363        C  0.16108930  0.34215042  0.62714597     0.76200
O364        O  0.09605846  0.25196252  0.64778871    -0.57300
O365        O  0.16453171  0.34887009  0.64893570    -0.47400
O366        O  0.08946290  0.30940412  0.66321186    -0.53700
C367        C  0.15470157  0.29302156  0.70696062     0.86400
O368        O  0.21336836  0.26369753  0.65762149    -0.55600
O369        O  0.15443046  0.30612098  0.62203779    -0.58900
In370      In  0.88443224  0.29959566  0.66340141     1.36900
C371        C  0.96257828  0.30291766  0.66011013     0.78800
O372        O  0.87979133  0.32331327  0.62622748    -0.59600
O373        O  0.86595730  0.36265016  0.65435596    -0.50500
C374        C  0.83424224  0.23978947  0.65449373     0.71500
O375        O  0.87129134  0.23628546  0.65201035    -0.45400
C376        C  0.87743133  0.30039279  0.71010576     0.76200
O377        O  0.94296298  0.27339604  0.65240092    -0.57300
O378        O  0.85712341  0.32283405  0.69662436    -0.47400
O379        O  0.94214658  0.33035296  0.66907489    -0.53700
C380        C  0.87019529  0.35809586  0.63241686     0.86400
O381        O  0.82304865  0.27420227  0.66051156    -0.55600
O382        O  0.90099078  0.27738502  0.69968010    -0.58900
In383      In  0.88682791  0.66975618  0.66475104     1.36900
C384        C  0.96578331  0.67593388  0.66085678     0.78800
O385        O  0.89547018  0.68656827  0.70290813    -0.59600
O386        O  0.85803403  0.63711699  0.69553987    -0.50500
C387        C  0.83522973  0.72952614  0.65687904     0.71500
O388        O  0.87218856  0.73514118  0.65820795    -0.45400
C389        C  0.87612837  0.61275378  0.63242651     0.76200
O390        O  0.94252109  0.70161946  0.65198409    -0.57300
O391        O  0.87592398  0.60553408  0.65432713    -0.47400
O392        O  0.94862674  0.64767348  0.67177597    -0.53700
C393        C  0.87353661  0.65910131  0.71106813     0.86400
O394        O  0.82483927  0.69327299  0.65876094    -0.55600
O395        O  0.88065255  0.64917622  0.62690786    -0.58900
In396      In  0.15567619  0.64490792  0.66398443     1.36900
C397        C  0.07658397  0.64925115  0.66575451     0.78800
O398        O  0.14880524  0.62747594  0.62585220    -0.59600
O399        O  0.17129660  0.58421966  0.65038514    -0.50500
C400        C  0.21014152  0.70153925  0.65504255     0.71500
O401        O  0.17511803  0.71009625  0.66103467    -0.45400
C402        C  0.17422393  0.62732788  0.70865842     0.76200
O403        O  0.09710667  0.67586801  0.65533575    -0.57300
O404        O  0.18254209  0.60462323  0.69175349    -0.47400
O405        O  0.09646862  0.62127041  0.67495321    -0.53700
C406        C  0.16099530  0.59220182  0.62943457     0.86400
O407        O  0.21653717  0.66466343  0.65295094    -0.55600
O408        O  0.15715900  0.65951663  0.70267415    -0.58900
C409        C  0.00865750  0.62341534  0.93712100     0.87700
C410        C  0.04392039  0.63566880  0.92115284    -0.52500
C411        C  0.04452783  0.61626318  0.90003918     0.10600
C412        C  0.00965625  0.58715348  0.89636144     0.21600
C413        C  0.97167418  0.63172208  0.92164912    -0.53200
C414        C  0.97237484  0.61263984  0.90040830     0.10700
C415        C  0.01100380  0.57757120  0.93891796    -0.52800
C416        C  0.01168192  0.55837917  0.91776956     0.11300
H417        H  0.06676101  0.65701152  0.92613032     0.15800
H418        H  0.01025391  0.57190224  0.87900443     0.01600
H419        H  0.94738719  0.65105884  0.92677880     0.16100
H420        H  0.01177713  0.56164928  0.95579609     0.15900
C421        C  0.01205424  0.62319181  0.03765403     0.87700
C422        C  0.97757488  0.63550835  0.05393715    -0.52500
C423        C  0.97808570  0.61629713  0.07539670     0.10600
C424        C  0.01261494  0.58701477  0.07891339     0.21600
C425        C  0.04982766  0.63149354  0.05255925    -0.53200
C426        C  0.04978433  0.61220977  0.07403580     0.10700
C427        C  0.00936576  0.57729891  0.03657109    -0.52800
C428        C  0.00964582  0.55826716  0.05804099     0.11300
H429        H  0.95494903  0.65722382  0.04904197     0.15800
H430        H  0.01262550  0.57184892  0.09652829     0.01600
H431        H  0.07401037  0.65094142  0.04701146     0.16100
H432        H  0.00805651  0.56124101  0.01997554     0.15900
C433        C  0.01243668  0.32056916  0.94107443     0.87700
C434        C  0.97590129  0.31002553  0.92586059    -0.52500
C435        C  0.97580081  0.32859577  0.90425052     0.10600
C436        C  0.01189494  0.35563973  0.89947197     0.21600
C437        C  0.04818052  0.30946868  0.92533828    -0.53200
C438        C  0.04766742  0.32803054  0.90364300     0.10700
C439        C  0.01297490  0.36650719  0.94177088    -0.52800
C440        C  0.01300786  0.38509181  0.92015628     0.11300
H441        H  0.95255364  0.28946347  0.93136629     0.15800
H442        H  0.01171486  0.37032385  0.88172297     0.01600
H443        H  0.07145183  0.28876484  0.93064851     0.16100
H444        H  0.01321829  0.38292331  0.95825898     0.15900
C445        C  0.01385900  0.32021588  0.04161309     0.87700
C446        C  0.05092915  0.31090360  0.05675592    -0.52500
C447        C  0.05156451  0.33039458  0.07779326     0.10600
C448        C  0.01527306  0.35698384  0.08217365     0.21600
C449        C  0.97864265  0.30921515  0.05799023    -0.53200
C450        C  0.97963573  0.32873849  0.07914341     0.10700
C451        C  0.01270001  0.36603520  0.03961706    -0.52800
C452        C  0.01299986  0.38543998  0.06065728     0.11300
H453        H  0.07425783  0.29039831  0.05163131     0.15800
H454        H  0.01577476  0.37247112  0.09946466     0.01600
H455        H  0.95507706  0.28846977  0.05334007     0.16100
H456        H  0.01154340  0.38179531  0.02269288     0.15900
C457        C  0.16207955  0.47170488  0.54173671     0.87700
C458        C  0.17382998  0.50679257  0.55786642    -0.52500
C459        C  0.15571094  0.50554181  0.57939795     0.10600
C460        C  0.12803437  0.46941030  0.58324818     0.21600
C461        C  0.17226498  0.43393642  0.55655441    -0.53200
C462        C  0.15428234  0.43284660  0.57818115     0.10700
C463        C  0.11654256  0.47262836  0.54092928    -0.52800
C464        C  0.09846301  0.47196117  0.56248968     0.11300
H465        H  0.19424334  0.53061622  0.55280796     0.15800
H466        H  0.11380981  0.46870755  0.60095572     0.01600
H467        H  0.19217956  0.41050500  0.55076357     0.16100
H468        H  0.10003732  0.47432648  0.52439885     0.15900
C469        C  0.15780317  0.48022630  0.44157504     0.87700
C470        C  0.16751990  0.44500617  0.42520902    -0.52500
C471        C  0.14678883  0.44581042  0.40448024     0.10600
C472        C  0.11864311  0.48166040  0.40158410     0.21600
C473        C  0.16606558  0.51796327  0.42613243    -0.53200
C474        C  0.14536802  0.51848214  0.40523759     0.10700
C475        C  0.11255241  0.47915033  0.44426725    -0.52800
C476        C  0.09180491  0.47976212  0.42354518     0.11300
H477        H  0.18889582  0.42167199  0.42943000     0.15800
H478        H  0.10227414  0.48194026  0.38449055     0.01600
H479        H  0.18651793  0.54168940  0.43100332     0.16100
H480        H  0.09823714  0.47872026  0.46146759     0.15900
C481        C  0.86138571  0.48654718  0.54729570     0.87700
C482        C  0.85090037  0.45035235  0.56332702    -0.52500
C483        C  0.87109979  0.44979310  0.58428620     0.10600
C484        C  0.89967573  0.48527213  0.58764057     0.21600
C485        C  0.85327572  0.52331239  0.56293924    -0.53200
C486        C  0.87360083  0.52259693  0.58391130     0.10700
C487        C  0.90676480  0.48523715  0.54497999    -0.52800
C488        C  0.92701713  0.48461619  0.56591113     0.11300
H489        H  0.82967016  0.42721501  0.55860781     0.15800
H490        H  0.91580772  0.48478253  0.60481733     0.01600
H491        H  0.83343710  0.54764512  0.55808080     0.16100
H492        H  0.92157561  0.48438205  0.52794155     0.15900
C493        C  0.85597103  0.48790889  0.44708850     0.87700
C494        C  0.84646294  0.52519558  0.43169299    -0.52500
C495        C  0.86536726  0.52544512  0.41039162     0.10600
C496        C  0.89158835  0.48880320  0.40608309     0.21600
C497        C  0.84479940  0.45214869  0.43114931    -0.53200
C498        C  0.86377582  0.45287043  0.40977477     0.10700
C499        C  0.90147510  0.48689748  0.44852428    -0.52800
C500        C  0.92028711  0.48695690  0.42721443     0.11300
H501        H  0.82627890  0.54883839  0.43679546     0.15800
H502        H  0.90641063  0.48903289  0.38855187     0.01600
H503        H  0.82424853  0.42847532  0.43624568     0.16100
H504        H  0.91738254  0.48611027  0.46527577     0.15900
In505      In  0.13035162  0.65423727  0.31662538     1.36900
C506        C  0.05208609  0.65109136  0.31941720     0.78800
O507        O  0.11800257  0.67236064  0.27882178    -0.59600
O508        O  0.15554021  0.62239023  0.28497960    -0.50500
C509        C  0.18047384  0.71495600  0.32316564     0.71500
O510        O  0.14331687  0.71938884  0.32390845    -0.45400
C511        C  0.14404057  0.60370276  0.35265259     0.76200
O512        O  0.07122688  0.68267000  0.32415326    -0.57300
O513        O  0.15126032  0.59478661  0.33146805    -0.47400
O514        O  0.07300707  0.62169912  0.31343059    -0.53700
C515        C  0.13878739  0.64511259  0.26997128     0.86400
O516        O  0.19168043  0.67945283  0.31979848    -0.55600
O517        O  0.13142427  0.63881940  0.35554539    -0.58900
In518      In  0.86345905  0.66157631  0.32235440     1.36900
C519        C  0.94126060  0.67303434  0.32470529     0.78800
O520        O  0.86351542  0.64734941  0.36128291    -0.59600
O521        O  0.85571356  0.59953051  0.33709923    -0.50500
C522        C  0.80623943  0.71543293  0.32762970     0.71500
O523        O  0.84203261  0.72543081  0.32455983    -0.45400
C524        C  0.85159473  0.64225467  0.27741111     0.76200
O525        O  0.91705103  0.70022581  0.33014374    -0.57300
O526        O  0.83584843  0.62326750  0.29433870    -0.47400
O527        O  0.92545961  0.64065814  0.31824532    -0.53700
C528        C  0.85892281  0.61025465  0.35829171     0.86400
O529        O  0.80014330  0.67823944  0.32864770    -0.55600
O530        O  0.87283822  0.67158794  0.28342032    -0.58900
In531      In  0.84991967  0.61402646  0.16564501     1.36900
C532        C  0.84855414  0.53440973  0.16769383     0.78800
O533        O  0.86274505  0.61099654  0.12684725    -0.59600
O534        O  0.90942627  0.62879194  0.14999660    -0.50500
C535        C  0.79476793  0.66910262  0.15727921     0.71500
O536        O  0.78596155  0.63238664  0.15961277    -0.45400
C537        C  0.86217986  0.63331962  0.21041642     0.76200
O538        O  0.82011342  0.55425617  0.15882969    -0.57300
O539        O  0.88644379  0.64241406  0.19424010    -0.47400
O540        O  0.87661483  0.55527779  0.17572726    -0.53700
C541        C  0.89851711  0.62144987  0.12913781     0.86400
O542        O  0.83129788  0.67685439  0.15840795    -0.55600
O543        O  0.83208473  0.61384302  0.20370480    -0.58900
In544      In  0.83977243  0.34313228  0.16320467     1.36900
C545        C  0.82837300  0.42207941  0.16012222     0.78800
O546        O  0.81157732  0.33454646  0.19880032    -0.59600
O547        O  0.87452000  0.33755874  0.19747161    -0.50500
C548        C  0.79221872  0.28142202  0.15487738     0.71500
O549        O  0.78014299  0.31727441  0.15341154    -0.45400
C550        C  0.89422976  0.33160989  0.13002354     0.76200
O551        O  0.80335880  0.39745179  0.15206481    -0.57300
O552        O  0.90128347  0.32567403  0.15171050    -0.47400
O553        O  0.85857366  0.40616125  0.16940695    -0.53700
C554        C  0.84384278  0.33331312  0.21008339     0.86400
O555        O  0.82858517  0.27756389  0.15973888    -0.55600
O556        O  0.85949509  0.34314447  0.12526942    -0.58900
In557      In  0.18185972  0.59757045  0.16267085     1.36900
C558        C  0.18215070  0.51791241  0.16271122     0.78800
O559        O  0.20128463  0.59018600  0.20037723    -0.59600
O560        O  0.14859217  0.62330562  0.19367728    -0.50500
C561        C  0.23631972  0.65370112  0.15452443     0.71500
O562        O  0.24497134  0.61682353  0.15476021    -0.45400
C563        C  0.13272570  0.60852397  0.12644669     0.76200
O564        O  0.21228956  0.53803421  0.15631652    -0.57300
O565        O  0.12238854  0.61444189  0.14755369    -0.47400
O566        O  0.15263768  0.53854519  0.16867331    -0.53700
C567        C  0.17279340  0.60963041  0.20886746     0.86400
O568        O  0.20020034  0.66125718  0.15781734    -0.55600
O569        O  0.16811021  0.59725119  0.12379849    -0.58900
In570      In  0.19293891  0.32642458  0.16172115     1.36900
C571        C  0.20465272  0.40535948  0.15883046     0.78800
O572        O  0.17543833  0.32693695  0.12327745    -0.59600
O573        O  0.13018781  0.31937645  0.14910443    -0.50500
C574        C  0.24574250  0.26786249  0.15566506     0.71500
O575        O  0.25617216  0.30394227  0.15815080    -0.45400
C576        C  0.17528788  0.31314168  0.20689698     0.76200
O577        O  0.22987482  0.38072743  0.15122907    -0.57300
O578        O  0.15599251  0.29775928  0.19018835    -0.47400
O579        O  0.17433543  0.38941646  0.16802801    -0.53700
C580        C  0.13895280  0.32278160  0.12756344     0.86400
O581        O  0.20880613  0.26226669  0.15560604    -0.55600
O582        O  0.20417351  0.33485118  0.20056207    -0.58900
In583      In  0.87734738  0.31853083  0.32222467     1.36900
C584        C  0.95424553  0.29916250  0.32457263     0.78800
O585        O  0.86091291  0.30251192  0.28475682    -0.59600
O586        O  0.88498453  0.36023953  0.29068929    -0.50500
C587        C  0.81676604  0.26848262  0.32840419     0.71500
O588        O  0.85227246  0.25635730  0.32718646    -0.45400
C589        C  0.86623668  0.36985855  0.35748579     0.76200
O590        O  0.92758183  0.27639925  0.33291663    -0.57300
O591        O  0.85480504  0.37712951  0.33662908    -0.47400
O592        O  0.94133382  0.33108849  0.31532918    -0.53700
C593        C  0.87210180  0.33543618  0.27585699     0.86400
O594        O  0.81263025  0.30598154  0.32698601    -0.55600
O595        O  0.88325422  0.33662672  0.36036291    -0.58900
In596      In  0.14597747  0.30912508  0.31851143     1.36900
C597        C  0.06695539  0.31007872  0.31595664     0.78800
O598        O  0.14316072  0.32476852  0.35697806    -0.59600
O599        O  0.15879766  0.37056902  0.33209476    -0.50500
C600        C  0.19867215  0.25126817  0.32688208     0.71500
O601        O  0.16232959  0.24367763  0.32330929    -0.45400
C602        C  0.16745366  0.32140436  0.27401847     0.76200
O603        O  0.08519278  0.28229242  0.32684243    -0.57300
O604        O  0.17843294  0.34418089  0.29046391    -0.47400
O605        O  0.08906189  0.33581753  0.30621441    -0.53700
C606        C  0.15184784  0.36110239  0.35332215     0.86400
O607        O  0.20714794  0.28799905  0.32742073    -0.55600
O608        O  0.14535521  0.29263470  0.28038039    -0.58900
C609        C  0.99722434  0.28989566  0.32561336    -0.15200
C610        C  0.02341658  0.31419681  0.31462772    -0.30400
H611        H  0.00735388  0.26389120  0.33565936     0.13800
H612        H  0.01252422  0.33989681  0.30455504     0.14400
C613        C  0.16429449  0.30619345  0.23173979    -0.15200
C614        C  0.17962247  0.32806730  0.24932032    -0.30400
H615        H  0.14203993  0.28337364  0.23553702     0.13800
H616        H  0.20090937  0.35179102  0.24548802     0.14400
C617        C  0.18021077  0.47378475  0.16368223    -0.15200
C618        C  0.20973646  0.44937146  0.15706463    -0.30400
H619        H  0.15263694  0.46085652  0.17025227     0.13800
H620        H  0.23732280  0.46166565  0.15014906     0.14400
C621        C  0.84489785  0.32605031  0.23586566    -0.15200
C622        C  0.87130320  0.34391234  0.25013872    -0.30400
H623        H  0.82200748  0.30685154  0.24346360     0.13800
H624        H  0.89203271  0.36584270  0.24291512     0.14400
C625        C  0.82312283  0.46603596  0.15892621    -0.15200
C626        C  0.85035032  0.49034565  0.16869149    -0.30400
H627        H  0.79724478  0.47840304  0.14996997     0.13800
H628        H  0.87611735  0.47743002  0.17752157     0.14400
C629        C  0.84550294  0.63065971  0.25266076    -0.15200
C630        C  0.86848813  0.64506208  0.23514802    -0.30400
H631        H  0.82229580  0.60894610  0.24887268     0.13800
H632        H  0.89271300  0.66556166  0.23904568     0.14400
C633        C  0.14257013  0.64049887  0.24409663    -0.15200
C634        C  0.16863975  0.61497708  0.23462936    -0.30400
H635        H  0.12388536  0.65885222  0.23263487     0.13800
H636        H  0.18818439  0.59768493  0.24614510     0.14400
C637        C  0.00867008  0.64776409  0.32031516    -0.15200
C638        C  0.98467384  0.67843661  0.32551916    -0.30400
H639        H  0.99599595  0.61876838  0.31595410     0.13800
H640        H  0.99689221  0.70756757  0.32996889     0.14400
C641        C  0.86009042  0.42195390  0.39220308    -0.12000
C642        C  0.86123445  0.39772446  0.37650501    -0.13600
C643        C  0.86063303  0.55691147  0.39300264    -0.12000
C644        C  0.85863063  0.58195060  0.37753675    -0.13600
C645        C  0.83928708  0.52286372  0.50974589    -0.12100
C646        C  0.84275437  0.48663087  0.52260840     0.10000
C647        C  0.84130374  0.45062735  0.50984622    -0.12100
C648        C  0.83950491  0.45094947  0.48512316    -0.12100
C649        C  0.83933327  0.48727598  0.47218589     0.10000
C650        C  0.83757761  0.52317223  0.48502168    -0.12100
H651        H  0.84223580  0.55137536  0.51842942     0.14000
H652        H  0.84586483  0.42210240  0.51870235     0.14000
H653        H  0.84285322  0.42268366  0.47619512     0.14000
H654        H  0.83942753  0.55196929  0.47610576     0.14000
C655        C  0.15069097  0.41526859  0.38687464    -0.12000
C656        C  0.15240392  0.39005830  0.37184361    -0.13600
C657        C  0.14833378  0.55034633  0.38768368    -0.12000
C658        C  0.14806497  0.57533805  0.37198495    -0.13600
C659        C  0.02636638  0.50056621  0.40564621    -0.12100
C660        C  0.04770075  0.47915363  0.42302858     0.10000
C661        C  0.02664046  0.45860767  0.44086918    -0.12100
C662        C  0.98542521  0.46078796  0.44193822    -0.12100
C663        C  0.96406348  0.48342642  0.42513474     0.10000
C664        C  0.98483449  0.50266552  0.40668383    -0.12100
H665        H  0.04178271  0.51693511  0.39178822     0.14000
H666        H  0.04202637  0.44079578  0.45413621     0.14000
H667        H  0.97028499  0.44448427  0.45594037     0.14000
H668        H  0.96916955  0.52045572  0.39353383     0.14000
C669        C  0.03427063  0.50206254  0.54898108    -0.12100
C670        C  0.05477353  0.47700289  0.56497599     0.10000
C671        C  0.03315341  0.45671763  0.58270356    -0.12100
C672        C  0.99157595  0.46006381  0.58363254    -0.12100
C673        C  0.97114318  0.48371292  0.56683994     0.10000
C674        C  0.99309176  0.50530902  0.54987386    -0.12100
H675        H  0.05009552  0.51922541  0.53561393     0.14000
H676        H  0.04818636  0.43725431  0.59528702     0.14000
H677        H  0.97534067  0.44301288  0.59686871     0.14000
H678        H  0.97832890  0.52465402  0.53710182     0.14000
C679        C  0.17915183  0.51105418  0.50448389    -0.12100
C680        C  0.17811501  0.47381222  0.51653545     0.10000
C681        C  0.17911456  0.43886483  0.50288947    -0.12100
C682        C  0.17837196  0.44105362  0.47819261    -0.12100
C683        C  0.17656966  0.47829608  0.46615449     0.10000
C684        C  0.17849012  0.51324441  0.47977301    -0.12100
H685        H  0.17616215  0.53878178  0.51399434     0.14000
H686        H  0.17614747  0.40958493  0.51113267     0.14000
H687        H  0.17470668  0.41328624  0.46876484     0.14000
H688        H  0.17501825  0.54247054  0.47155792     0.14000
C689        C  0.08329714  0.32577578  0.09471110    -0.12000
C690        C  0.10923824  0.32325610  0.10936281    -0.13600
C691        C  0.92382168  0.32664379  0.11200972    -0.12000
C692        C  0.94886147  0.32546977  0.09679683    -0.13600
C693        C  0.97706011  0.30205752  0.97932651    -0.12100
C694        C  0.01269262  0.30391469  0.96632270     0.10000
C695        C  0.04866796  0.30292670  0.97901934    -0.12100
C696        C  0.04905689  0.30247162  0.00371432    -0.12100
C697        C  0.01345959  0.30303660  0.01674864     0.10000
C698        C  0.97744931  0.30151311  0.00407105    -0.12100
H699        H  0.94860899  0.30514103  0.97057547     0.14000
H700        H  0.07675380  0.30671856  0.97001491     0.14000
H701        H  0.07748758  0.30610521  0.01238413     0.14000
H702        H  0.94934609  0.30426164  0.01312142     0.14000
C703        C  0.10578139  0.61325122  0.10686693    -0.12000
C704        C  0.08157364  0.61465930  0.09110917    -0.13600
C705        C  0.94859601  0.62208243  0.09340431    -0.12000
C706        C  0.92525639  0.62347707  0.10947491    -0.13600
C707        C  0.98455111  0.49177923  0.04474363    -0.12100
C708        C  0.00783640  0.51404244  0.06048949     0.10000
C709        C  0.03049116  0.49372266  0.07775435    -0.12100
C710        C  0.03125289  0.45171436  0.07847171    -0.12100
C711        C  0.00942844  0.42961678  0.06190129     0.10000
C712        C  0.98525708  0.45008636  0.04548209    -0.12100
H713        H  0.96597742  0.50662825  0.03167225     0.14000
H714        H  0.04885137  0.51022690  0.09003481     0.14000
H715        H  0.05014041  0.43662068  0.09127616     0.14000
H716        H  0.96714745  0.43381728  0.03295661     0.14000
C717        C  0.03795844  0.49313990  0.93311311    -0.12100
C718        C  0.01490214  0.51406886  0.91634833     0.10000
C719        C  0.99365483  0.49225439  0.89933047    -0.12100
C720        C  0.99385123  0.45013983  0.89995522    -0.12100
C721        C  0.01531102  0.42941660  0.91760209     0.10000
C722        C  0.03813951  0.45142856  0.93373874    -0.12100
H723        H  0.05562796  0.50906605  0.94600684     0.14000
H724        H  0.97560490  0.50765571  0.88622818     0.14000
H725        H  0.97599551  0.43389495  0.88730192     0.14000
H726        H  0.05598840  0.43635775  0.94707864     0.14000
C727        C  0.97342156  0.64060888  0.97532639    -0.12100
C728        C  0.00874745  0.64059266  0.96204861     0.10000
C729        C  0.04495959  0.64342411  0.97448746    -0.12100
C730        C  0.04598634  0.64337234  0.99920606    -0.12100
C731        C  0.01081343  0.64039552  0.01249986     0.10000
C732        C  0.97444794  0.64058121  0.00007752    -0.12100
H733        H  0.94494065  0.63636098  0.96681046     0.14000
H734        H  0.07299807  0.64129175  0.96533856     0.14000
H735        H  0.07473872  0.64128354  0.00765087     0.14000
H736        H  0.94670824  0.63634227  0.00940174     0.14000
C737        C  0.16185158  0.56266668  0.61121901    -0.12000
C738        C  0.16032331  0.53675876  0.59657477    -0.13600
C739        C  0.00951549  0.67848605  0.65852767    -0.15200
C740        C  0.03287207  0.64944706  0.66750036    -0.30400
H741        H  0.02250549  0.70400954  0.64923727     0.13800
H742        H  0.01936224  0.62407755  0.67669649     0.14400
C743        C  0.87195257  0.55483656  0.60080464    -0.12000
C744        C  0.87267573  0.58154882  0.61508695    -0.13600
C745        C  0.86648352  0.39060702  0.61571626    -0.12000
C746        C  0.86709367  0.41777151  0.60146318    -0.13600
C747        C  0.00602785  0.30574523  0.65957194    -0.15200
C748        C  0.02935331  0.27622384  0.65180890    -0.30400
H749        H  0.01926419  0.33266198  0.66687368     0.13800
H750        H  0.01649173  0.24907102  0.64461034     0.14400
C751        C  0.15983074  0.40039045  0.59502448    -0.12000
C752        C  0.16232789  0.37359730  0.60951373    -0.13600
C753        C  0.18024692  0.32219957  0.74400087    -0.15200
C754        C  0.15515154  0.29731601  0.73293450    -0.30400
H755        H  0.20186492  0.33932206  0.73380368     0.13800
H756        H  0.13437824  0.27927214  0.74320842     0.14400
C757        C  0.10234449  0.32147608  0.87029721    -0.12000
C758        C  0.07801042  0.32267763  0.88593444    -0.13600
C759        C  0.17118681  0.63862930  0.75157408    -0.15200
C760        C  0.18340681  0.61637021  0.73338323    -0.30400
H761        H  0.15425199  0.66580948  0.74829423     0.13800
H762        H  0.19971513  0.58880893  0.73669136     0.14400
C763        C  0.20585084  0.48334072  0.82712153    -0.15200
C764        C  0.17852211  0.45910866  0.81744545    -0.30400
H765        H  0.23151268  0.47080487  0.83621596     0.13800
H766        H  0.15269181  0.47208681  0.80871756     0.14400
C767        C  0.07710915  0.61983380  0.88354989    -0.12000
C768        C  0.10450251  0.61968881  0.86979622    -0.13600
C769        C  0.84549633  0.32094351  0.74686709    -0.15200
C770        C  0.87462920  0.30110490  0.73604226    -0.30400
H771        H  0.82263328  0.33590108  0.73645937     0.13800
H772        H  0.89690994  0.28512705  0.74636861     0.14400
C773        C  0.91942066  0.32110182  0.87210195    -0.12000
C774        C  0.94469328  0.32307886  0.88713031    -0.13600
C775        C  0.84379722  0.62422931  0.74560567    -0.15200
C776        C  0.86731423  0.65334197  0.73677170    -0.30400
H777        H  0.82799036  0.60446932  0.73365738     0.13800
H778        H  0.88288940  0.67330649  0.74870737     0.14400
C779        C  0.81640233  0.48081413  0.82638498    -0.15200
C780        C  0.84481503  0.45616141  0.81871465    -0.30400
H781        H  0.78942645  0.46879456  0.83425598     0.13800
H782        H  0.87174283  0.46862939  0.81099601     0.14400
C783        C  0.91496727  0.61696020  0.86831643    -0.12000
C784        C  0.94082138  0.61603674  0.88315148    -0.13600
C785        C  0.20858444  0.74881994  0.32508159    -0.15200
C786        C  0.24792407  0.74246693  0.32495933    -0.30400
H787        H  0.19696362  0.77916851  0.32510707     0.13800
H788        H  0.25911936  0.71194181  0.32493865     0.14400
C789        C  0.22290889  0.18119460  0.32657460    -0.15200
C790        C  0.22992002  0.22052995  0.32914207    -0.30400
H791        H  0.19269546  0.17037913  0.32426699     0.13800
H792        H  0.26025643  0.23106808  0.33139143     0.14400
C793        C  0.30545571  0.97642781  0.32463029    -0.15200
C794        C  0.33068449  0.95349634  0.31246275    -0.30400
H795        H  0.28247892  0.96284001  0.33556079     0.13800
H796        H  0.35376913  0.96751407  0.30177622     0.14400
C797        C  0.72617019  0.69551021  0.15406483    -0.15200
C798        C  0.76556212  0.70155777  0.15457153    -0.30400
H799        H  0.71413958  0.66526043  0.15392186     0.13800
H800        H  0.77715445  0.73200005  0.15458140     0.14400
C801        C  0.30476176  0.68028367  0.15175255    -0.15200
C802        C  0.26543381  0.68635076  0.15161873    -0.30400
H803        H  0.31652440  0.65001537  0.15254861     0.13800
H804        H  0.25397515  0.71676382  0.15122967     0.14400
C805        C  0.36981756  0.78714493  0.23237116    -0.15200
C806        C  0.34178478  0.81031602  0.24193990    -0.30400
H807        H  0.39038692  0.77082402  0.24373807     0.13800
H808        H  0.32073214  0.82596099  0.23055239     0.14400
C809        C  0.50424766  0.76724126  0.15246756    -0.15200
C810        C  0.52771244  0.79582556  0.16141932    -0.30400
H811        H  0.51697851  0.74102168  0.14422640     0.13800
H812        H  0.51466368  0.82206456  0.16948476     0.14400
C813        C  0.77863390  0.78404824  0.32782833    -0.15200
C814        C  0.77331262  0.74416503  0.32893433    -0.30400
H815        H  0.80838529  0.79672693  0.32751033     0.13800
H816        H  0.74341800  0.73181798  0.32952010     0.14400
C817        C  0.68040724  0.83784347  0.24467630    -0.15200
C818        C  0.66005028  0.80729267  0.23525597    -0.30400
H819        H  0.69745815  0.85794368  0.23333298     0.13800
H820        H  0.64365519  0.78675765  0.24667798     0.14400
C821        C  0.78531765  0.20164991  0.32845966    -0.15200
C822        C  0.78214260  0.24154402  0.33031444    -0.30400
H823        H  0.81438877  0.18797566  0.32670130     0.13800
H824        H  0.75297614  0.25520271  0.33154231     0.14400
C825        C  0.69775421  0.00642996  0.32757359    -0.15200
C826        C  0.67179262  0.98156937  0.31725512    -0.30400
H827        H  0.72260449  0.99458101  0.33773418     0.13800
H828        H  0.64671070  0.99373031  0.30740810     0.14400
C829        C  0.31325484  0.23830169  0.15460401    -0.15200
C830        C  0.27359450  0.23399996  0.15394926    -0.30400
H831        H  0.32648301  0.26803277  0.15495152     0.13800
H832        H  0.26070097  0.20410889  0.15356797     0.14400
C833        C  0.33410255  0.11149832  0.24732727    -0.15200
C834        C  0.36413563  0.13302152  0.23812843    -0.30400
H835        H  0.31441960  0.09486078  0.23574171     0.13800
H836        H  0.38333966  0.15034257  0.24964734     0.14400
C837        C  0.76623249  0.24613543  0.15233723    -0.15200
C838        C  0.72655475  0.24903575  0.15133644    -0.30400
H839        H  0.78005474  0.21677996  0.15339263     0.13800
H840        H  0.71253968  0.27832650  0.15091856     0.14400
C841        C  0.68234808  0.13052137  0.23116178    -0.15200
C842        C  0.66770824  0.15363897  0.24835415    -0.30400
H843        H  0.70136745  0.10526626  0.23561834     0.13800
H844        H  0.64860558  0.17882009  0.24387835     0.14400
C845        C  0.53200617  0.16064816  0.15628872    -0.15200
C846        C  0.50810388  0.13283184  0.16604119    -0.30400
H847        H  0.51953013  0.18652613  0.14713011     0.13800
H848        H  0.52084040  0.10688737  0.17501397     0.14400
C849        C  0.43093417  0.11696569  0.38224308    -0.12000
C850        C  0.40350528  0.11534530  0.36845098    -0.13600
C851        C  0.56708462  0.13255470  0.37906950    -0.12000
C852        C  0.59431472  0.13660048  0.36544881    -0.13600
C853        C  0.47329930  0.13807790  0.49842686    -0.12100
C854        C  0.51049075  0.14245531  0.50967775     0.10000
C855        C  0.54383959  0.14971765  0.49536565    -0.12100
C856        C  0.54056896  0.14993423  0.47071613    -0.12100
C857        C  0.50377123  0.14320675  0.45942023     0.10000
C858        C  0.47000758  0.13841653  0.47377886    -0.12100
H859        H  0.44714178  0.13028418  0.50858843     0.14000
H860        H  0.57331572  0.15113910  0.50292908     0.14000
H861        H  0.56784573  0.15133139  0.46072168     0.14000
H862        H  0.44152473  0.13087395  0.46608603     0.14000
C863        C  0.43987216  0.82819205  0.38248176    -0.12000
C864        C  0.41509731  0.82503912  0.36708467    -0.13600
C865        C  0.60002252  0.83474479  0.36754576    -0.12000
C866        C  0.57446811  0.83250315  0.38242399    -0.13600
C867        C  0.48774837  0.95649705  0.39594587    -0.12100
C868        C  0.51096250  0.93559450  0.41266837     0.10000
C869        C  0.53658158  0.95713339  0.42747775    -0.12100
C870        C  0.53718422  0.99882944  0.42669654    -0.12100
C871        C  0.51204555  0.01999743  0.41116094     0.10000
C872        C  0.48822569  0.99855716  0.39522269    -0.12100
H873        H  0.46789778  0.94043870  0.38428294     0.14000
H874        H  0.55568160  0.94167886  0.44003268     0.14000
H875        H  0.55661710  0.01460715  0.43874420     0.14000
H876        H  0.46852517  0.01423098  0.38312115     0.14000
C877        C  0.50023111  0.95513113  0.57687057    -0.12100
C878        C  0.51883327  0.93322566  0.55896503     0.10000
C879        C  0.54053471  0.95397001  0.54149595    -0.12100
C880        C  0.54173691  0.99560380  0.54106514    -0.12100
C881        C  0.52146154  0.01769362  0.55815186     0.10000
C882        C  0.50159858  0.99718186  0.57648789    -0.12100
H883        H  0.48327853  0.93993047  0.59053989     0.14000
H884        H  0.55642440  0.93802588  0.52792445     0.14000
H885        H  0.55830820  0.01058112  0.52712911     0.14000
H886        H  0.48569988  0.01358664  0.58986057     0.14000
C887        C  0.54480134  0.80647716  0.49975689    -0.12100
C888        C  0.50934602  0.80781149  0.51291101     0.10000
C889        C  0.47326709  0.80829679  0.50020149    -0.12100
C890        C  0.47272103  0.80995697  0.47545557    -0.12100
C891        C  0.50819680  0.81093708  0.46232768     0.10000
C892        C  0.54424939  0.80819640  0.47497667    -0.12100
H893        H  0.57329828  0.80844344  0.50854946     0.14000
H894        H  0.44527481  0.81176511  0.50924692     0.14000
H895        H  0.44435329  0.81435588  0.46679334     0.14000
H896        H  0.57240184  0.81120723  0.46596659     0.14000
C897        C  0.66291658  0.87459856  0.11016742    -0.12000
C898        C  0.66124053  0.90091108  0.09531835    -0.13600
C899        C  0.66396300  0.03780659  0.09502638    -0.12000
C900        C  0.66553337  0.06410618  0.10953366    -0.13600
C901        C  0.68135195  0.93515941  0.97796825    -0.12100
C902        C  0.67586139  0.97105363  0.96499546     0.10000
C903        C  0.67509925  0.00713325  0.97766920    -0.12100
C904        C  0.67640925  0.00707361  0.00239418    -0.12100
C905        C  0.67868103  0.97094066  0.01546805     0.10000
C906        C  0.68269839  0.93510837  0.00274577    -0.12100
H907        H  0.68046644  0.90646035  0.96936183     0.14000
H908        H  0.66922195  0.03528686  0.96862569     0.14000
H909        H  0.67144049  0.03517893  0.01125097     0.14000
H910        H  0.68273273  0.90634466  0.01173114     0.14000
C911        C  0.37226638  0.89261609  0.09694231    -0.12000
C912        C  0.37070748  0.86483450  0.11077156    -0.13600
C913        C  0.36726863  0.02921172  0.10063498    -0.12000
C914        C  0.36748752  0.05492567  0.11550879    -0.13600
C915        C  0.49299873  0.99687690  0.04979053    -0.12100
C916        C  0.47272186  0.97212071  0.06604069     0.10000
C917        C  0.49490029  0.95004115  0.08278416    -0.12100
C918        C  0.53662970  0.95100026  0.08233036    -0.12100
C919        C  0.55668473  0.97397439  0.06509469     0.10000
C920        C  0.53436980  0.99771580  0.04929097    -0.12100
H921        H  0.47682834  0.01526523  0.03714148     0.14000
H922        H  0.48008073  0.93070074  0.09551108     0.14000
H923        H  0.55313001  0.93240793  0.09471073     0.14000
H924        H  0.54897562  0.01661688  0.03623009     0.14000
C925        C  0.48831373  0.00490862  0.93635525    -0.12100
C926        C  0.46563700  0.98189971  0.92065975     0.10000
C927        C  0.48512209  0.95938140  0.90338314    -0.12100
C928        C  0.52673858  0.95809354  0.90274089    -0.12100
C929        C  0.54932738  0.97939572  0.91933676     0.10000
C930        C  0.52967198  0.00378734  0.93564695    -0.12100
H931        H  0.47401061  0.02327581  0.94948155     0.14000
H932        H  0.46824041  0.94129675  0.89113865     0.14000
H933        H  0.54114401  0.93904917  0.89001886     0.14000
H934        H  0.54631512  0.02148708  0.94820388     0.14000
C935        C  0.34244712  0.93404358  0.98179860    -0.12100
C936        C  0.34313608  0.97116778  0.96968247     0.10000
C937        C  0.34225581  0.00624064  0.98328467    -0.12100
C938        C  0.34366102  0.00432703  0.00798544    -0.12100
C939        C  0.34595416  0.96724634  0.02005530     0.10000
C940        C  0.34387810  0.93212969  0.00650128    -0.12100
H941        H  0.34516527  0.90622936  0.97236057     0.14000
H942        H  0.34482025  0.03546718  0.97491158     0.14000
H943        H  0.34716320  0.03212113  0.01741399     0.14000
H944        H  0.34761400  0.90288623  0.01464591     0.14000
C945        C  0.71780679  0.24836802  0.82727444    -0.15200
C946        C  0.75684516  0.24339053  0.83098721    -0.30400
H947        H  0.70604353  0.27802247  0.82341340     0.13800
H948        H  0.76866624  0.21344756  0.83385236     0.14400
C949        C  0.65555176  0.06435962  0.87033667    -0.12000
C950        C  0.65496916  0.03813829  0.88520634    -0.13600
C951        C  0.26327771  0.24423950  0.82743829    -0.15200
C952        C  0.30295612  0.24840854  0.82813120    -0.30400
H953        H  0.25040986  0.21433675  0.82693586     0.13800
H954        H  0.31634886  0.27807751  0.82810507     0.14400
C955        C  0.49660196  0.13615822  0.81968778    -0.15200
C956        C  0.52217588  0.16523823  0.82570665    -0.30400
H957        H  0.50777048  0.10761367  0.81352851     0.13800
H958        H  0.51121847  0.19371739  0.83207357     0.14400
C959        C  0.35775713  0.04613349  0.89181049    -0.12000
C960        C  0.35729519  0.07234082  0.87695522    -0.13600
C961        C  0.23322240  0.19530852  0.65173651    -0.15200
C962        C  0.27226021  0.20269408  0.65358489    -0.30400
H963        H  0.22247802  0.16471912  0.65019965     0.13800
H964        H  0.28279693  0.23337345  0.65509829     0.14400
C965        C  0.37586386  0.13828012  0.73352602    -0.15200
C966        C  0.35275467  0.12293656  0.75071205    -0.30400
H967        H  0.40054776  0.15790054  0.73793765     0.13800
H968        H  0.32879401  0.10234259  0.74644429     0.14400
C969        C  0.45581442  0.12275819  0.59162083    -0.12000
C970        C  0.43227239  0.12457622  0.60748199    -0.13600
C971        C  0.23807424  0.77039843  0.65597122    -0.15200
C972        C  0.24222103  0.73120437  0.65151912    -0.30400
H973        H  0.20939877  0.78214570  0.66119889     0.13800
H974        H  0.27116633  0.71969832  0.64660793     0.14400
C975        C  0.32840550  0.96833415  0.65542363    -0.15200
C976        C  0.35718741  0.99156379  0.66438501    -0.30400
H977        H  0.30259269  0.98173706  0.64693785     0.13800
H978        H  0.38321461  0.97782511  0.67245861     0.14400
C979        C  0.44349039  0.83235501  0.59222336    -0.12000
C980        C  0.41817119  0.83246934  0.60730202    -0.13600
C981        C  0.80657816  0.76296066  0.65429515    -0.15200
C982        C  0.76720542  0.75640679  0.65501516    -0.30400
H983        H  0.81798555  0.79344810  0.65341021     0.13800
H984        H  0.75619653  0.72580783  0.65644952     0.14400
C985        C  0.60285164  0.82588078  0.60815602    -0.12000
C986        C  0.57808197  0.82584656  0.59262607    -0.13600
C987        C  0.76726172  0.21043672  0.65516261    -0.15200
C988        C  0.80643496  0.20581652  0.65170866    -0.30400
H989        H  0.75543124  0.24012591  0.65842303     0.13800
H990        H  0.81850709  0.17631279  0.64824843     0.14400
C991        C  0.65297934  0.13766790  0.73054938    -0.15200
C992        C  0.67476418  0.12579704  0.74932093    -0.30400
H993        H  0.62552832  0.15399936  0.73326224     0.13800
H994        H  0.70213069  0.10932164  0.74662671     0.14400
C995        C  0.67498864  0.96834206  0.66016143    -0.15200
C996        C  0.70550901  0.99406405  0.65742385    -0.30400
H997        H  0.64544316  0.98012031  0.66333317     0.13800
H998        H  0.73526816  0.98287735  0.65428703     0.14400
C999        C  0.61275779  0.12665700  0.60289282    -0.12000
C1000       C  0.58848807  0.12523893  0.58710549    -0.13600
C1001       C  0.73689759  0.71834760  0.82568078    -0.15200
C1002       C  0.73317926  0.67841576  0.82747610    -0.30400
H1003       H  0.76609198  0.73177449  0.82335857     0.13800
H1004       H  0.70398405  0.66481844  0.82937581     0.14400
C1005       C  0.64687006  0.80601976  0.74577015    -0.15200
C1006       C  0.67067949  0.83288200  0.73506151    -0.30400
H1007       H  0.62908796  0.78561892  0.73525328     0.13800
H1008       H  0.68972124  0.85200710  0.74564264     0.14400
C1009       C  0.65016804  0.87746051  0.87107359    -0.12000
C1010       C  0.64902560  0.90262623  0.88626414    -0.13600
C1011       C  0.28578839  0.72221455  0.82857560    -0.15200
C1012       C  0.29115342  0.68248158  0.82688439    -0.30400
H1013       H  0.25597701  0.73389167  0.83088854     0.13800
H1014       H  0.32067917  0.67049572  0.82399038     0.14400
C1015       C  0.34700519  0.83482659  0.74787672    -0.15200
C1016       C  0.36215216  0.81426636  0.72974409    -0.30400
H1017       H  0.32785195  0.86041886  0.74443828     0.13800
H1018       H  0.38162575  0.78890213  0.73310185     0.14400
C1019       C  0.49565856  0.80747260  0.81756042    -0.15200
C1020       C  0.51970692  0.77752018  0.82458701    -0.30400
H1021       H  0.50860722  0.83537084  0.81104147     0.13800
H1022       H  0.50748377  0.74942963  0.83126771     0.14400
C1023       C  0.36430794  0.88537428  0.87331286    -0.12000
C1024       C  0.36481798  0.90975444  0.88891126    -0.13600
loop_ 
_geom_bond_atom_site_label_1 
_geom_bond_atom_site_label_2 
_geom_bond_distance 
_geom_bond_site_symmetry_2 
_ccdc_geom_bond_type 
In1           O3   2.252       .  S
In1           O4   2.245       .  S
In1          O12   2.232       .  S
In1           O6   2.270       .  S
In1           O8   2.277       .  S
In1           O9   2.245       .  S
In1          O10   2.220       .  S
In1          O13   2.252       .  S
C2            O8   1.265       .  A
C2           O10   1.258       .  A
C2         C1019   1.472       .  S
O3           C11   1.261       .  A
O4           C11   1.260       .  A
C5           O12   1.258       .  A
C5            O6   1.264       .  A
C5         C1011   1.475       .  S
C7            O9   1.260       .  A
C7           O13   1.261       .  A
C7         C1023   1.438       .  S
C11        C1015   1.473       .  S
In14         O16   2.251       .  S
In14         O17   2.253       .  S
In14         O25   2.233       .  S
In14         O19   2.251       .  S
In14         O21   2.267       .  S
In14         O22   2.253       .  S
In14         O23   2.215       .  S
In14         O26   2.246       .  S
C15          O21   1.265       .  A
C15          O23   1.261       .  A
C15        C1020   1.479       .  S
O16          C24   1.260       .  A
O17          C24   1.261       .  A
C18          O25   1.259       .  A
C18          O19   1.264       .  A
C18        C1001   1.471       .  S
C20          O22   1.264       .  A
C20          O26   1.259       .  A
C20        C1005   1.476       .  S
C24        C1009   1.441       .  S
In27         O29   2.265       .  S
In27         O30   2.256       .  S
In27         O38   2.241       .  S
In27         O32   2.267       .  S
In27         O34   2.273       .  S
In27         O35   2.252       .  S
In27         O36   2.245       .  S
In27         O39   2.265       .  S
C28          O34   1.262       .  A
C28          O36   1.260       .  A
C28         C996   1.484   1_545  S
O29          C37   1.262       .  A
O30          C37   1.259       .  A
C31          O38   1.258       .  A
C31          O32   1.262       .  A
C31         C987   1.475       .  S
C33          O35   1.259       .  A
C33          O39   1.259       .  A
C33         C999   1.442       .  S
C37         C991   1.480       .  S
In40         O42   2.249       .  S
In40         O43   2.251       .  S
In40         O51   2.233       .  S
In40         O45   2.278       .  S
In40         O47   2.277       .  S
In40         O48   2.261       .  S
In40         O49   2.226       .  S
In40         O52   2.237       .  S
C41          O47   1.268       .  A
C41          O49   1.260       .  A
C41         C995   1.479       .  S
O42          C50   1.262       .  A
O43          C50   1.263       .  A
C44          O51   1.258       .  A
C44          O45   1.266       .  A
C44         C982   1.479       .  S
C46          O48   1.264       .  A
C46          O52   1.259       .  A
C46        C1006   1.474       .  S
C50         C985   1.441       .  S
In53         O55   2.242       .  S
In53         O56   2.255       .  S
In53         O64   2.246       .  S
In53         O58   2.257       .  S
In53         O60   2.254       .  S
In53         O61   2.250       .  S
In53         O62   2.233       .  S
In53         O65   2.254       .  S
C54          O60   1.261       .  A
C54          O62   1.261       .  A
C54         C975   1.474       .  S
O55          C63   1.260       .  A
O56          C63   1.260       .  A
C57          O64   1.261       .  A
C57          O58   1.259       .  A
C57         C971   1.478       .  S
C59          O61   1.259       .  A
C59          O65   1.260       .  A
C59         C980   1.439       .  S
C63        C1016   1.474       .  S
In66         O68   2.234       .  S
In66         O69   2.234       .  S
In66         O77   2.229       .  S
In66         O71   2.256       .  S
In66         O73   2.256       .  S
In66         O74   2.238       .  S
In66         O75   2.223       .  S
In66         O78   2.236       .  S
C67          O73   1.266       .  A
C67          O75   1.259       .  A
C67         C976   1.470   1_545  S
O68          C76   1.260       .  A
O69          C76   1.260       .  A
C70          O77   1.258       .  A
C70          O71   1.264       .  A
C70         C962   1.471       .  S
C72          O74   1.262       .  A
C72          O78   1.262       .  A
C72         C965   1.469       .  S
C76         C970   1.427       .  S
In79         O81   2.250       .  S
In79         O82   2.238       .  S
In79         O90   2.240       .  S
In79         O84   2.269       .  S
In79         O86   2.256       .  S
In79         O87   2.252       .  S
In79         O88   2.234       .  S
In79         O91   2.237       .  S
C80          O86   1.265       .  A
C80          O88   1.259       .  A
C80         C955   1.472       .  S
O81          C89   1.261       .  A
O82          C89   1.259       .  A
C83          O90   1.260       .  A
C83          O84   1.261       .  A
C83         C952   1.480       .  S
C85          O87   1.260       .  A
C85          O91   1.260       .  A
C85         C966   1.471       .  S
C89         C960   1.434       .  S
In92         O94   2.263       .  S
In92         O95   2.256       .  S
In92        O103   2.246       .  S
In92         O97   2.252       .  S
In92         O99   2.252       .  S
In92        O100   2.246       .  S
In92        O101   2.242       .  S
In92        O104   2.253       .  S
C93          O99   1.260       .  A
C93         O101   1.261       .  A
C93         C956   1.475       .  S
O94         C102   1.260       .  A
O95         C102   1.258       .  A
C96         O103   1.261       .  A
C96          O97   1.259       .  A
C96         C945   1.474       .  S
C98         O100   1.259       .  A
C98         O104   1.260       .  A
C98         C949   1.436       .  S
C102        C992   1.479       .  S
C105        C106   1.543   1_565  S
C105        C111   1.537       .  S
C105        C109   1.547       .  S
C105        C936   1.526       .  S
C106        H113   1.086       .  S
C106        C107   1.365       .  D
C107        C108   1.535   1_545  S
C107        C959   1.440       .  S
C108        C112   1.534       .  S
C108        C110   1.533       .  S
C108        H114   1.112       .  S
C109        H115   1.085       .  S
C109        C110   1.366       .  D
C110       C1024   1.444       .  S
C111        H116   1.087       .  S
C111        C112   1.363       .  D
C112        C926   1.482       .  S
C117        C118   1.542       .  S
C117        C123   1.535       .  S
C117        C121   1.545       .  S
C117        C939   1.527       .  S
C118        H125   1.086       .  S
C118        C119   1.363       .  D
C119        C120   1.538       .  S
C119        C911   1.443       .  S
C120        C124   1.539       .  S
C120        C122   1.537       .  S
C120        H126   1.111       .  S
C121        H127   1.085   1_565  S
C121        C122   1.367       .  D
C122        C913   1.446   1_565  S
C123        H128   1.087       .  S
C123        C124   1.365       .  D
C124        C916   1.489       .  S
C129        C130   1.547       .  S
C129        C135   1.534       .  S
C129        C133   1.544   1_565  S
C129        C902   1.530       .  S
C130        H137   1.085       .  S
C130        C131   1.367       .  D
C131        C132   1.536       .  S
C131       C1010   1.447       .  S
C132        C136   1.537       .  S
C132        C134   1.535   1_565  S
C132        H138   1.111       .  S
C133        H139   1.086       .  S
C133        C134   1.366       .  D
C134        C950   1.442       .  S
C135        H140   1.087       .  S
C135        C136   1.363       .  D
C136        C929   1.485       .  S
C141        C142   1.545   1_565  S
C141        C147   1.534       .  S
C141        C145   1.546       .  S
C141        C905   1.531       .  S
C142        H149   1.086       .  S
C142        C143   1.367       .  D
C143        C144   1.538   1_545  S
C143        C899   1.447       .  S
C144        C148   1.538       .  S
C144        C146   1.537       .  S
C144        H150   1.111       .  S
C145        H151   1.085       .  S
C145        C146   1.366       .  D
C146        C898   1.446       .  S
C147        H152   1.087       .  S
C147        C148   1.363       .  D
C148        C919   1.487       .  S
C153        C154   1.548       .  S
C153        C159   1.531       .  S
C153        C157   1.546       .  S
C153        C888   1.530       .  S
C154        H161   1.085       .  S
C154        C155   1.369       .  D
C155        C156   1.535       .  S
C155        C986   1.447       .  S
C156        C160   1.536       .  S
C156        C158   1.535       .  S
C156        H162   1.111       .  S
C157        H163   1.085       .  S
C157        C158   1.366       .  D
C158        C979   1.444       .  S
C159        H164   1.087       .  S
C159        C160   1.362       .  D
C160        C878   1.484       .  S
C165        C166   1.547       .  S
C165        C171   1.534       .  S
C165        C169   1.548       .  S
C165        C891   1.532       .  S
C166        H173   1.085       .  S
C166        C167   1.367       .  D
C167        C168   1.534       .  S
C167        C863   1.447       .  S
C168        C172   1.534       .  S
C168        C170   1.532       .  S
C168        H174   1.112       .  S
C169        H175   1.085       .  S
C169        C170   1.367       .  D
C170        C866   1.443       .  S
C171        H176   1.087       .  S
C171        C172   1.364       .  D
C172        C868   1.481       .  S
C177        C178   1.538       .  S
C177        C183   1.532       .  S
C177        C181   1.552       .  S
C177        C854   1.525       .  S
C178        H185   1.086       .  S
C178        C179   1.361       .  D
C179        C180   1.532       .  S
C179        C969   1.434       .  S
C180        C184   1.535       .  S
C180        C182   1.534       .  S
C180        H186   1.112       .  S
C181        H187   1.084       .  S
C181        C182   1.370       .  D
C182       C1000   1.448       .  S
C183        H188   1.087       .  S
C183        C184   1.362       .  D
C184        C881   1.481       .  S
C189        C190   1.541       .  S
C189        C195   1.533       .  S
C189        C193   1.545       .  S
C189        C857   1.526       .  S
C190        H197   1.085       .  S
C190        C191   1.362       .  D
C191        C192   1.538       .  S
C191        C851   1.441       .  S
C192        C196   1.536       .  S
C192        C194   1.537       .  S
C192        H198   1.111       .  S
C193        H199   1.086       .  S
C193        C194   1.368       .  D
C194        C849   1.446       .  S
C195        H200   1.087       .  S
C195        C196   1.363       .  D
C196        C871   1.482       .  S
In201       O203   2.264       .  S
In201       O204   2.254       .  S
In201       O212   2.248       .  S
In201       O206   2.243       .  S
In201       O208   2.253       .  S
In201       O209   2.257       .  S
In201       O210   2.238       .  S
In201       O213   2.247       .  S
C202        O208   1.259       .  A
C202        O210   1.260       .  A
C202        C845   1.473       .  S
O203        C211   1.259       .  A
O204        C211   1.258       .  A
C205        O212   1.263       .  A
C205        O206   1.259       .  A
C205        C838   1.474       .  S
C207        O209   1.260       .  A
C207        O213   1.260       .  A
C207        C841   1.475       .  S
C211        C900   1.441       .  S
In214       O216   2.244       .  S
In214       O217   2.255       .  S
In214       O225   2.242       .  S
In214       O219   2.261       .  S
In214       O221   2.252       .  S
In214       O222   2.257       .  S
In214       O223   2.231       .  S
In214       O226   2.251       .  S
C215        O221   1.264       .  A
C215        O223   1.260       .  A
C215        C846   1.470       .  S
O216        C224   1.258       .  A
O217        C224   1.263       .  A
C218        O225   1.260       .  A
C218        O219   1.260       .  A
C218        C829   1.478       .  S
C220        O222   1.261       .  A
C220        O226   1.260       .  A
C220        C914   1.440       .  S
C224        C834   1.474       .  S
In227       O229   2.252       .  S
In227       O230   2.247       .  S
In227       O238   2.251       .  S
In227       O232   2.246       .  S
In227       O234   2.250       .  S
In227       O235   2.247       .  S
In227       O236   2.231       .  S
In227       O239   2.245       .  S
C228        O234   1.261       .  A
C228        O236   1.261       .  A
C228        C825   1.472       .  S
O229        C237   1.259       .  A
O230        C237   1.257       .  A
C231        O238   1.261       .  A
C231        O232   1.258       .  A
C231        C821   1.474       .  S
C233        O235   1.260       .  A
C233        O239   1.261       .  A
C233        C842   1.473       .  S
C237        C852   1.435       .  S
In240       O242   2.242       .  S
In240       O243   2.248       .  S
In240       O251   2.226       .  S
In240       O245   2.258       .  S
In240       O247   2.254       .  S
In240       O248   2.249       .  S
In240       O249   2.225       .  S
In240       O252   2.246       .  S
C241        O247   1.265       .  A
C241        O249   1.259       .  A
C241        C826   1.469       .  S
O242        C250   1.260       .  A
O243        C250   1.264       .  A
C244        O251   1.260       .  A
C244        O245   1.263       .  A
C244        C813   1.474       .  S
C246        O248   1.261       .  A
C246        O252   1.260       .  A
C246        C865   1.437       .  S
C250        C817   1.474       .  S
In253       O255   2.252       .  S
In253       O256   2.248       .  S
In253       O264   2.243       .  S
In253       O258   2.251       .  S
In253       O260   2.248       .  S
In253       O261   2.257       .  S
In253       O262   2.223       .  S
In253       O265   2.248       .  S
C254        O260   1.261       .  A
C254        O262   1.261       .  A
C254        C809   1.470       .  S
O255        C263   1.260       .  A
O256        C263   1.259       .  A
C257        O264   1.261       .  A
C257        O258   1.258       .  A
C257        C801   1.474       .  S
C259        O261   1.262       .  A
C259        O265   1.258       .  A
C259        C805   1.476       .  S
C263        C912   1.436       .  S
In266       O268   2.246       .  S
In266       O269   2.254       .  S
In266       O277   2.238       .  S
In266       O271   2.263       .  S
In266       O273   2.248       .  S
In266       O274   2.254       .  S
In266       O275   2.219       .  S
In266       O278   2.250       .  S
C267        O273   1.264       .  A
C267        O275   1.259       .  A
C267        C810   1.465       .  S
O268        C276   1.259       .  A
O269        C276   1.263       .  A
C270        O277   1.261       .  A
C270        O271   1.260       .  A
C270        C797   1.477       .  S
C272        O274   1.260       .  A
C272        O278   1.259       .  A
C272        C897   1.440       .  S
C276        C818   1.474       .  S
In279       O281   2.243       .  S
In279       O282   2.254       .  S
In279       O290   2.253       .  S
In279       O284   2.260       .  S
In279       O286   2.265       .  S
In279       O287   2.251       .  S
In279       O288   2.224       .  S
In279       O291   2.260       .  S
C280        O286   1.262       .  A
C280        O288   1.259       .  A
C280        C793   1.474   1_545  S
O281        C289   1.259       .  A
O282        C289   1.262       .  A
C283        O290   1.260       .  A
C283        O284   1.259       .  A
C283        C789   1.478       .  S
C285        O287   1.258       .  A
C285        O291   1.260       .  A
C285        C850   1.440       .  S
C289        C833   1.474       .  S
In292       O294   2.248       .  S
In292       O295   2.256       .  S
In292       O303   2.226       .  S
In292       O297   2.261       .  S
In292       O299   2.258       .  S
In292       O300   2.256       .  S
In292       O301   2.219       .  S
In292       O304   2.238       .  S
C293        O299   1.266       .  A
C293        O301   1.259       .  A
C293        C794   1.468       .  S
O294        C302   1.260       .  A
O295        C302   1.262       .  A
C296        O303   1.259       .  A
C296        O297   1.265       .  A
C296        C786   1.472       .  S
C298        O300   1.265       .  A
C298        O304   1.260       .  A
C298        C806   1.475       .  S
C302        C864   1.441       .  S
In305       O307   2.253       .  S
In305       O308   2.264       .  S
In305       O316   2.241       .  S
In305       O310   2.243       .  S
In305       O312   2.256       .  S
In305       O313   2.252       .  S
In305       O314   2.233       .  S
In305       O317   2.256       .  S
C306        O312   1.260       .  A
C306        O314   1.261       .  A
C306        C779   1.474       .  S
O307        C315   1.258       .  A
O308        C315   1.261       .  A
C309        O316   1.262       .  A
C309        O310   1.259       .  A
C309       C1002   1.472       .  S
C311        O313   1.258       .  A
C311        O317   1.258       .  A
C311        C783   1.438       .  S
C315        C775   1.479       .  S
In318       O320   2.230       .  S
In318       O321   2.233       .  S
In318       O329   2.225       .  S
In318       O323   2.254       .  S
In318       O325   2.259       .  S
In318       O326   2.245       .  S
In318       O327   2.215       .  S
In318       O330   2.228       .  S
C319        O325   1.267       .  A
C319        O327   1.259       .  A
C319        C780   1.469       .  S
O320        C328   1.262       .  A
O321        C328   1.263       .  A
C322        O329   1.259       .  A
C322        O323   1.265       .  A
C322        C946   1.471       .  S
C324        O326   1.265       .  A
C324        O330   1.259       .  A
C324        C769   1.469       .  S
C328        C773   1.430       .  S
In331       O333   2.264       .  S
In331       O334   2.248       .  S
In331       O342   2.246       .  S
In331       O336   2.261       .  S
In331       O338   2.264       .  S
In331       O339   2.250       .  S
In331       O340   2.234       .  S
In331       O343   2.250       .  S
C332        O338   1.262       .  A
C332        O340   1.261       .  A
C332        C763   1.478       .  S
O333        C341   1.261       .  A
O334        C341   1.257       .  A
C335        O342   1.261       .  A
C335        O336   1.260       .  A
C335       C1012   1.479       .  S
C337        O339   1.260       .  A
C337        O343   1.259       .  A
C337        C759   1.473       .  S
C341        C768   1.440       .  S
In344       O346   2.239       .  S
In344       O347   2.256       .  S
In344       O355   2.219       .  S
In344       O349   2.269       .  S
In344       O351   2.264       .  S
In344       O352   2.253       .  S
In344       O353   2.221       .  S
In344       O356   2.243       .  S
C345        O351   1.268       .  A
C345        O353   1.260       .  A
C345        C764   1.474       .  S
O346        C354   1.261       .  A
O347        C354   1.266       .  A
C348        O355   1.259       .  A
C348        O349   1.267       .  A
C348        C951   1.474       .  S
C350        O352   1.264       .  A
C350        O356   1.261       .  A
C350        C757   1.440       .  S
C354        C753   1.477       .  S
In357       O359   2.247       .  S
In357       O360   2.263       .  S
In357       O368   2.243       .  S
In357       O362   2.251       .  S
In357       O364   2.253       .  S
In357       O365   2.253       .  S
In357       O366   2.218       .  S
In357       O369   2.253       .  S
C358        O364   1.262       .  A
C358        O366   1.261       .  A
C358        C748   1.471       .  S
O359        C367   1.258       .  A
O360        C367   1.263       .  A
C361        O368   1.261       .  A
C361        O362   1.259       .  A
C361        C961   1.474       .  S
C363        O365   1.260       .  A
C363        O369   1.259       .  A
C363        C752   1.439       .  S
C367        C754   1.477       .  S
In370       O372   2.242       .  S
In370       O373   2.248       .  S
In370       O381   2.238       .  S
In370       O375   2.258       .  S
In370       O377   2.251       .  S
In370       O378   2.242       .  S
In370       O379   2.219       .  S
In370       O382   2.242       .  S
C371        O377   1.265       .  A
C371        O379   1.259       .  A
C371        C747   1.466   1_655  S
O372        C380   1.260       .  A
O373        C380   1.260       .  A
C374        O381   1.261       .  A
C374        O375   1.262       .  A
C374        C988   1.478       .  S
C376        O378   1.263       .  A
C376        O382   1.258       .  A
C376        C770   1.470       .  S
C380        C745   1.435       .  S
In383       O385   2.253       .  S
In383       O386   2.261       .  S
In383       O394   2.255       .  S
In383       O388   2.264       .  S
In383       O390   2.268       .  S
In383       O391   2.258       .  S
In383       O392   2.242       .  S
In383       O395   2.264       .  S
C384        O390   1.261       .  A
C384        O392   1.260       .  A
C384        C739   1.481   1_655  S
O385        C393   1.259       .  A
O386        C393   1.262       .  A
C387        O394   1.261       .  A
C387        O388   1.260       .  A
C387        C981   1.483       .  S
C389        O391   1.259       .  A
C389        O395   1.260       .  A
C389        C744   1.443       .  S
C393        C776   1.479       .  S
In396       O398   2.251       .  S
In396       O399   2.239       .  S
In396       O407   2.239       .  S
In396       O401   2.274       .  S
In396       O403   2.278       .  S
In396       O404   2.244       .  S
In396       O405   2.229       .  S
In396       O408   2.247       .  S
C397        O403   1.265       .  A
C397        O405   1.257       .  A
C397        C740   1.475       .  S
O398        C406   1.261       .  A
O399        C406   1.259       .  A
C400        O407   1.257       .  A
C400        O401   1.262       .  A
C400        C972   1.475       .  S
C402        O404   1.260       .  A
C402        O408   1.262       .  A
C402        C760   1.473       .  S
C406        C737   1.434       .  S
C409        C410   1.545       .  S
C409        C415   1.534       .  S
C409        C413   1.543   1_455  S
C409        C728   1.528       .  S
C410        H417   1.085       .  S
C410        C411   1.365       .  D
C411        C412   1.537       .  S
C411        C767   1.446       .  S
C412        C416   1.537       .  S
C412        C414   1.538   1_455  S
C412        H418   1.111       .  S
C413        H419   1.086       .  S
C413        C414   1.366       .  D
C414        C784   1.444       .  S
C415        H420   1.087       .  S
C415        C416   1.364       .  D
C416        C718   1.486       .  S
C421        C422   1.544   1_455  S
C421        C427   1.535       .  S
C421        C425   1.550       .  S
C421        C731   1.528       .  S
C422        H429   1.086       .  S
C422        C423   1.365       .  D
C423        C424   1.532   1_655  S
C423        C705   1.439       .  S
C424        C428   1.533       .  S
C424        C426   1.529       .  S
C424        H430   1.112       .  S
C425        H431   1.084       .  S
C425        C426   1.367       .  D
C426        C704   1.442       .  S
C427        H432   1.087       .  S
C427        C428   1.363       .  D
C428        C708   1.481       .  S
C433        C434   1.541   1_455  S
C433        C439   1.534       .  S
C433        C437   1.547       .  S
C433        C694   1.525       .  S
C434        H441   1.086       .  S
C434        C435   1.363       .  D
C435        C436   1.534   1_655  S
C435        C774   1.437       .  S
C436        C440   1.537       .  S
C436        C438   1.534       .  S
C436        H442   1.111       .  S
C437        H443   1.085       .  S
C437        C438   1.367       .  D
C438        C758   1.446       .  S
C439        H444   1.087       .  S
C439        C440   1.364       .  D
C440        C721   1.486       .  S
C445        C446   1.542       .  S
C445        C451   1.532       .  S
C445        C449   1.547   1_455  S
C445        C697   1.525       .  S
C446        H453   1.086       .  S
C446        C447   1.363       .  D
C447        C448   1.535       .  S
C447        C689   1.439       .  S
C448        C452   1.536       .  S
C448        C450   1.534   1_455  S
C448        H454   1.111       .  S
C449        H455   1.085       .  S
C449        C450   1.369       .  D
C450        C692   1.444       .  S
C451        H456   1.087       .  S
C451        C452   1.361       .  D
C452        C711   1.482       .  S
C457        C458   1.543       .  S
C457        C463   1.534       .  S
C457        C461   1.543       .  S
C457        C680   1.526       .  S
C458        H465   1.085       .  S
C458        C459   1.363       .  D
C459        C460   1.535       .  S
C459        C738   1.440       .  S
C460        C464   1.538       .  S
C460        C462   1.539       .  S
C460        H466   1.111       .  S
C461        H467   1.086       .  S
C461        C462   1.366       .  D
C462        C751   1.445       .  S
C463        H468   1.087       .  S
C463        C464   1.364       .  D
C464        C670   1.488       .  S
C469        C470   1.541       .  S
C469        C475   1.532       .  S
C469        C473   1.548       .  S
C469        C683   1.525       .  S
C470        H477   1.086       .  S
C470        C471   1.362       .  D
C471        C472   1.535       .  S
C471        C655   1.440       .  S
C472        C476   1.538       .  S
C472        C474   1.536       .  S
C472        H478   1.111       .  S
C473        H479   1.085       .  S
C473        C474   1.370       .  D
C474        C657   1.449       .  S
C475        H480   1.087       .  S
C475        C476   1.362       .  D
C476        C660   1.485       .  S
C481        C482   1.542       .  S
C481        C487   1.535       .  S
C481        C485   1.546       .  S
C481        C646   1.528       .  S
C482        H489   1.086       .  S
C482        C483   1.364       .  D
C483        C484   1.536       .  S
C483        C746   1.441       .  S
C484        C488   1.538       .  S
C484        C486   1.538       .  S
C484        H490   1.111       .  S
C485        H491   1.085       .  S
C485        C486   1.367       .  D
C486        C743   1.448       .  S
C487        H492   1.087       .  S
C487        C488   1.364       .  D
C488        C673   1.487       .  S
C493        C494   1.543       .  S
C493        C499   1.534       .  S
C493        C497   1.549       .  S
C493        C649   1.527       .  S
C494        H501   1.085       .  S
C494        C495   1.364       .  D
C495        C496   1.532       .  S
C495        C643   1.438       .  S
C496        C500   1.535       .  S
C496        C498   1.532       .  S
C496        H502   1.111       .  S
C497        H503   1.085       .  S
C497        C498   1.369       .  D
C498        C641   1.446       .  S
C499        H504   1.087       .  S
C499        C500   1.363       .  D
C500        C663   1.484       .  S
In505       O507   2.252       .  S
In505       O508   2.261       .  S
In505       O516   2.235       .  S
In505       O510   2.258       .  S
In505       O512   2.252       .  S
In505       O513   2.258       .  S
In505       O514   2.220       .  S
In505       O517   2.254       .  S
C506        O512   1.264       .  A
C506        O514   1.259       .  A
C506        C637   1.467       .  S
O507        C515   1.258       .  A
O508        C515   1.264       .  A
C509        O516   1.261       .  A
C509        O510   1.261       .  A
C509        C785   1.476       .  S
C511        O513   1.262       .  A
C511        O517   1.260       .  A
C511        C658   1.443       .  S
C515        C633   1.479       .  S
In518       O520   2.246       .  S
In518       O521   2.237       .  S
In518       O529   2.235       .  S
In518       O523   2.256       .  S
In518       O525   2.260       .  S
In518       O526   2.245       .  S
In518       O527   2.217       .  S
In518       O530   2.246       .  S
C519        O525   1.263       .  A
C519        O527   1.260       .  A
C519        C638   1.473       .  S
O520        C528   1.260       .  A
O521        C528   1.259       .  A
C522        O529   1.258       .  A
C522        O523   1.261       .  A
C522        C814   1.470       .  S
C524        O526   1.259       .  A
C524        O530   1.260       .  A
C524        C629   1.470       .  S
C528        C644   1.432       .  S
In531       O533   2.241       .  S
In531       O534   2.244       .  S
In531       O542   2.223       .  S
In531       O536   2.264       .  S
In531       O538   2.266       .  S
In531       O539   2.245       .  S
In531       O540   2.226       .  S
In531       O543   2.236       .  S
C532        O538   1.265       .  A
C532        O540   1.259       .  A
C532        C626   1.472       .  S
O533        C541   1.260       .  A
O534        C541   1.261       .  A
C535        O542   1.258       .  A
C535        O536   1.265       .  A
C535        C798   1.471       .  S
C537        O539   1.262       .  A
C537        O543   1.262       .  A
C537        C630   1.471       .  S
C541        C706   1.434       .  S
In544       O546   2.243       .  S
In544       O547   2.266       .  S
In544       O555   2.229       .  S
In544       O549   2.253       .  S
In544       O551   2.273       .  S
In544       O552   2.253       .  S
In544       O553   2.226       .  S
In544       O556   2.247       .  S
C545        O551   1.263       .  A
C545        O553   1.259       .  A
C545        C625   1.478       .  S
O546        C554   1.259       .  A
O547        C554   1.264       .  A
C548        O555   1.261       .  A
C548        O549   1.266       .  A
C548        C837   1.473       .  S
C550        O552   1.262       .  A
C550        O556   1.260       .  A
C550        C691   1.438       .  S
C554        C621   1.475       .  S
In557       O559   2.239       .  S
In557       O560   2.263       .  S
In557       O568   2.225       .  S
In557       O562   2.262       .  S
In557       O564   2.271       .  S
In557       O565   2.245       .  S
In557       O566   2.221       .  S
In557       O569   2.245       .  S
C558        O564   1.266       .  A
C558        O566   1.260       .  A
C558        C617   1.474       .  S
O559        C567   1.259       .  A
O560        C567   1.264       .  A
C561        O568   1.258       .  A
C561        O562   1.265       .  A
C561        C802   1.471       .  S
C563        O565   1.262       .  A
C563        O569   1.260       .  A
C563        C703   1.437       .  S
C567        C634   1.477       .  S
In570       O572   2.250       .  S
In570       O573   2.241       .  S
In570       O581   2.239       .  S
In570       O575   2.270       .  S
In570       O577   2.268       .  S
In570       O578   2.241       .  S
In570       O579   2.228       .  S
In570       O582   2.248       .  S
C571        O577   1.264       .  A
C571        O579   1.260       .  A
C571        C618   1.480       .  S
O572        C580   1.260       .  A
O573        C580   1.258       .  A
C574        O581   1.257       .  A
C574        O575   1.262       .  A
C574        C830   1.475       .  S
C576        O578   1.259       .  A
C576        O582   1.261       .  A
C576        C613   1.469       .  S
C580        C690   1.433       .  S
In583       O585   2.258       .  S
In583       O586   2.263       .  S
In583       O594   2.234       .  S
In583       O588   2.252       .  S
In583       O590   2.278       .  S
In583       O591   2.261       .  S
In583       O592   2.228       .  S
In583       O595   2.254       .  S
C584        O590   1.263       .  A
C584        O592   1.259       .  A
C584        C609   1.482       .  S
O585        C593   1.260       .  A
O586        C593   1.260       .  A
C587        O594   1.261       .  A
C587        O588   1.266       .  A
C587        C822   1.473       .  S
C589        O591   1.260       .  A
C589        O595   1.258       .  A
C589        C642   1.441       .  S
C593        C622   1.478       .  S
In596       O598   2.245       .  S
In596       O599   2.238       .  S
In596       O607   2.233       .  S
In596       O601   2.266       .  S
In596       O603   2.280       .  S
In596       O604   2.244       .  S
In596       O605   2.222       .  S
In596       O608   2.231       .  S
C597        O603   1.266       .  A
C597        O605   1.258       .  A
C597        C610   1.474       .  S
O598        C606   1.261       .  A
O599        C606   1.260       .  A
C600        O607   1.258       .  A
C600        O601   1.265       .  A
C600        C790   1.476       .  S
C602        O604   1.262       .  A
C602        O608   1.262       .  A
C602        C614   1.471       .  S
C606        C656   1.433       .  S
C609        H611   1.086   1_655  S
C609        C610   1.344   1_655  D
C610        H612   1.087       .  S
C613        H615   1.087       .  S
C613        C614   1.341       .  D
C614        H616   1.086       .  S
C617        H619   1.087       .  S
C617        C618   1.344       .  D
C618        H620   1.086       .  S
C621        H623   1.087       .  S
C621        C622   1.342       .  D
C622        H624   1.087       .  S
C625        H627   1.086       .  S
C625        C626   1.344       .  D
C626        H628   1.087       .  S
C629        H631   1.087       .  S
C629        C630   1.342       .  D
C630        H632   1.087       .  S
C633        H635   1.087       .  S
C633        C634   1.342       .  D
C634        H636   1.086       .  S
C637        H639   1.087   1_455  S
C637        C638   1.342   1_455  D
C638        H640   1.086       .  S
C641        C642   1.209       .  T
C643        C644   1.204       .  T
C645        C646   1.408       .  A
C645        C650   1.399       .  A
C645        H651   1.080       .  S
C646        C647   1.409       .  A
C647        C648   1.399       .  A
C647        H652   1.081       .  S
C648        C649   1.408       .  A
C648        H653   1.081       .  S
C649        C650   1.409       .  A
C650        H654   1.081       .  S
C655        C656   1.205       .  T
C657        C658   1.210       .  T
C659        C660   1.405       .  A
C659        C664   1.402   1_455  A
C659        H665   1.083       .  S
C660        C661   1.405       .  A
C661        C662   1.391   1_455  A
C661        H666   1.083       .  S
C662        C663   1.404       .  A
C662        H667   1.083       .  S
C663        C664   1.405       .  A
C664        H668   1.083       .  S
C669        C670   1.405       .  A
C669        C674   1.392   1_455  A
C669        H675   1.083       .  S
C670        C671   1.406       .  A
C671        C672   1.406   1_455  A
C671        H676   1.083       .  S
C672        C673   1.406       .  A
C672        H677   1.083       .  S
C673        C674   1.403       .  A
C674        H678   1.083       .  S
C679        C680   1.410       .  A
C679        C684   1.398       .  A
C679        H685   1.081       .  S
C680        C681   1.406       .  A
C681        C682   1.397       .  A
C681        H686   1.082       .  S
C682        C683   1.411       .  A
C682        H687   1.081       .  S
C683        C684   1.406       .  A
C684        H688   1.081       .  S
C689        C690   1.204       .  T
C691        C692   1.207       .  T
C693        C694   1.410   1_655  A
C693        C698   1.399   1_556  A
C693        H699   1.081       .  S
C694        C695   1.406       .  A
C695        C696   1.396   1_556  A
C695        H700   1.082       .  S
C696        C697   1.409       .  A
C696        H701   1.081       .  S
C697        C698   1.408   1_455  A
C698        H702   1.082       .  S
C703        C704   1.206       .  T
C705        C706   1.205       .  T
C707        C708   1.403   1_655  A
C707        C712   1.391       .  A
C707        H713   1.083       .  S
C708        C709   1.406       .  A
C709        C710   1.402       .  A
C709        H714   1.083       .  S
C710        C711   1.404       .  A
C710        H715   1.083       .  S
C711        C712   1.405   1_455  A
C712        H716   1.083       .  S
C717        C718   1.404       .  A
C717        C722   1.392       .  A
C717        H723   1.083       .  S
C718        C719   1.406   1_455  A
C719        C720   1.405       .  A
C719        H724   1.083       .  S
C720        C721   1.406   1_655  A
C720        H725   1.082       .  S
C721        C722   1.404       .  A
C722        H726   1.083       .  S
C727        C728   1.409   1_655  A
C727        C732   1.400   1_556  A
C727        H733   1.081       .  S
C728        C729   1.409       .  A
C729        C730   1.398       .  A
C729        H734   1.081       .  S
C730        C731   1.407   1_556  A
C730        H735   1.080   1_556  S
C731        C732   1.410   1_455  A
C732        H736   1.082       .  S
C737        C738   1.205       .  T
C739        H741   1.087       .  S
C739        C740   1.343       .  D
C740        H742   1.087       .  S
C743        C744   1.210       .  T
C745        C746   1.205       .  T
C747        H749   1.087       .  S
C747        C748   1.341       .  D
C748        H750   1.086       .  S
C751        C752   1.208       .  T
C753        H755   1.087       .  S
C753        C754   1.342       .  D
C754        H756   1.086       .  S
C757        C758   1.208       .  T
C759        H761   1.086       .  S
C759        C760   1.342       .  D
C760        H762   1.086       .  S
C763        H765   1.086       .  S
C763        C764   1.343       .  D
C764        H766   1.087       .  S
C767        C768   1.208       .  T
C769        H771   1.086       .  S
C769        C770   1.339       .  D
C770        H772   1.086       .  S
C773        C774   1.203       .  T
C775        H777   1.087       .  S
C775        C776   1.344       .  D
C776        H778   1.087       .  S
C779        H781   1.086       .  S
C779        C780   1.340       .  D
C780        H782   1.087       .  S
C783        C784   1.207       .  T
C785        H787   1.087       .  S
C785        C786   1.342       .  D
C786        H788   1.087       .  S
C789        H791   1.086       .  S
C789        C790   1.342       .  D
C790        H792   1.087       .  S
C793        H795   1.086       .  S
C793        C794   1.342       .  D
C794        H796   1.087       .  S
C797        H799   1.086       .  S
C797        C798   1.341       .  D
C798        H800   1.087       .  S
C801        H803   1.086       .  S
C801        C802   1.340       .  D
C802        H804   1.087       .  S
C805        H807   1.086       .  S
C805        C806   1.341       .  D
C806        H808   1.087       .  S
C809        H811   1.086       .  S
C809        C810   1.340       .  D
C810        H812   1.087       .  S
C813        H815   1.086       .  S
C813        C814   1.343       .  D
C814        H816   1.087       .  S
C817        H819   1.086       .  S
C817        C818   1.341       .  D
C818        H820   1.086       .  S
C821        H823   1.087       .  S
C821        C822   1.341       .  D
C822        H824   1.087       .  S
C825        H827   1.086   1_545  S
C825        C826   1.340   1_545  D
C826        H828   1.087       .  S
C829        H831   1.086       .  S
C829        C830   1.343       .  D
C830        H832   1.087       .  S
C833        H835   1.086       .  S
C833        C834   1.341       .  D
C834        H836   1.086       .  S
C837        H839   1.087       .  S
C837        C838   1.341       .  D
C838        H840   1.086       .  S
C841        H843   1.087       .  S
C841        C842   1.344       .  D
C842        H844   1.087       .  S
C845        H847   1.086       .  S
C845        C846   1.341       .  D
C846        H848   1.087       .  S
C849        C850   1.208       .  T
C851        C852   1.205       .  T
C853        C854   1.411       .  A
C853        C858   1.397       .  A
C853        H859   1.082       .  S
C854        C855   1.405       .  A
C855        C856   1.398       .  A
C855        H860   1.081       .  S
C856        C857   1.411       .  A
C856        H861   1.080       .  S
C857        C858   1.407       .  A
C858        H862   1.082       .  S
C863        C864   1.209       .  T
C865        C866   1.207       .  T
C867        C868   1.405       .  A
C867        C872   1.403       .  A
C867        H873   1.083       .  S
C868        C869   1.403       .  A
C869        C870   1.391       .  A
C869        H874   1.083       .  S
C870        C871   1.404   1_565  A
C870        H875   1.083   1_565  S
C871        C872   1.405   1_545  A
C872        H876   1.083   1_565  S
C877        C878   1.406       .  A
C877        C882   1.403       .  A
C877        H883   1.082       .  S
C878        C879   1.405       .  A
C879        C880   1.389       .  A
C879        H884   1.083       .  S
C880        C881   1.403   1_565  A
C880        H885   1.083   1_565  S
C881        C882   1.405   1_545  A
C882        H886   1.083   1_565  S
C887        C888   1.410       .  A
C887        C892   1.402       .  A
C887        H893   1.081       .  S
C888        C889   1.409       .  A
C889        C890   1.400       .  A
C889        H894   1.081       .  S
C890        C891   1.408       .  A
C890        H895   1.082       .  S
C891        C892   1.410       .  A
C892        H896   1.081       .  S
C897        C898   1.209       .  T
C899        C900   1.209       .  T
C901        C902   1.409       .  A
C901        C906   1.401   1_556  A
C901        H907   1.080       .  S
C902        C903   1.409   1_565  A
C903        C904   1.398   1_556  A
C903        H908   1.082       .  S
C904        C905   1.408   1_545  A
C904        H909   1.082       .  S
C905        C906   1.410       .  A
C906        H910   1.080       .  S
C911        C912   1.206       .  T
C913        C914   1.209       .  T
C915        C916   1.405       .  A
C915        C920   1.394       .  A
C915        H921   1.083   1_565  S
C916        C917   1.406       .  A
C917        C918   1.406       .  A
C917        H922   1.083       .  S
C918        C919   1.406       .  A
C918        H923   1.083       .  S
C919        C920   1.404       .  A
C920        H924   1.083   1_565  S
C925        C926   1.403   1_545  A
C925        C930   1.394       .  A
C925        H931   1.083       .  S
C926        C927   1.405       .  A
C927        C928   1.403       .  A
C927        H932   1.083       .  S
C928        C929   1.404       .  A
C928        H933   1.082       .  S
C929        C930   1.406   1_565  A
C930        H934   1.083       .  S
C935        C936   1.408       .  A
C935        C940   1.398   1_556  A
C935        H941   1.080       .  S
C936        C937   1.409   1_565  A
C937        C938   1.398   1_556  A
C937        H942   1.082       .  S
C938        C939   1.408   1_545  A
C938        H943   1.081       .  S
C939        C940   1.409       .  A
C940        H944   1.081       .  S
C945        H947   1.086       .  S
C945        C946   1.341       .  D
C946        H948   1.087       .  S
C949        C950   1.206       .  T
C951        H953   1.087       .  S
C951        C952   1.343       .  D
C952        H954   1.086       .  S
C955        H957   1.087       .  S
C955        C956   1.342       .  D
C956        H958   1.086       .  S
C959        C960   1.205       .  T
C961        H963   1.086       .  S
C961        C962   1.341       .  D
C962        H964   1.087       .  S
C965        H967   1.087       .  S
C965        C966   1.342       .  D
C966        H968   1.087       .  S
C969        C970   1.201       .  T
C971        H973   1.086       .  S
C971        C972   1.342       .  D
C972        H974   1.087       .  S
C975        H977   1.086       .  S
C975        C976   1.341       .  D
C976        H978   1.087       .  S
C979        C980   1.208       .  T
C981        H983   1.087       .  S
C981        C982   1.344       .  D
C982        H984   1.087       .  S
C985        C986   1.209       .  T
C987        H989   1.087       .  S
C987        C988   1.344       .  D
C988        H990   1.086       .  S
C991        H993   1.087       .  S
C991        C992   1.345       .  D
C992        H994   1.086       .  S
C995        H997   1.087       .  S
C995        C996   1.345       .  D
C996        H998   1.086       .  S
C999       C1000   1.210       .  T
C1001      H1003   1.087       .  S
C1001      C1002   1.340       .  D
C1002      H1004   1.086       .  S
C1005      H1007   1.086       .  S
C1005      C1006   1.341       .  D
C1006      H1008   1.087       .  S
C1009      C1010   1.209       .  T
C1011      H1013   1.087       .  S
C1011      C1012   1.343       .  D
C1012      H1014   1.086       .  S
C1015      H1017   1.087       .  S
C1015      C1016   1.343       .  D
C1016      H1018   1.087       .  S
C1019      H1021   1.087       .  S
C1019      C1020   1.344       .  D
C1020      H1022   1.086       .  S
C1023      C1024   1.207       .  T
