geometry optimzed in LAMMPS
_audit_creation_date              2020-11-30 
_audit_creation_method            'lammps2cif' 
_symmetry_space_group_name_H-M    'P1' 
_symmetry_Int_Tables_number       1 
_symmetry_cell_setting            triclinic 
loop_ 
_symmetry_equiv_pos_as_xyz 
  x,y,z 
_cell_length_a                    79.38047007 
_cell_length_b                    29.56495559123053 
_cell_length_c                    47.81973027609976 
_cell_angle_alpha                 89.83067711881519 
_cell_angle_beta                  90.21230951693673 
_cell_angle_gamma                 90.24511284818016 
loop_ 
_atom_site_label 
_atom_site_type_symbol 
_atom_site_fract_x 
_atom_site_fract_y 
_atom_site_fract_z 
_atom_site_charge 
C1          C  0.59476534  0.03624793  0.83150242     0.04000
C2          C  0.57770760  0.02952630  0.82466027    -0.12100
C3          C  0.56544344  0.02758433  0.84580237     0.01500
C4          C  0.57050342  0.03275314  0.87382172    -0.10600
C5          C  0.58747162  0.04045094  0.88095937     0.04000
C6          C  0.59952729  0.04257369  0.85954388    -0.10100
H7          H  0.57405240  0.02506787  0.80297725     0.09600
H8          H  0.56119761  0.02974785  0.89026691     0.07200
H9          H  0.61266573  0.04827261  0.86467923     0.07000
O10         O  0.70462405  0.02708862  0.60781688    -0.56900
C11         C  0.69098779  0.03017382  0.69157686     0.75700
O12         O  0.74061963  0.97671379  0.67431156    -0.58100
C13         C  0.71785021  0.02408921  0.59314468     0.75700
C14         C  0.73464935  0.11861032  0.65809495     0.78100
Cd15       Cd  0.71945973  0.02939701  0.65332853     1.37500
O16         O  0.68899860  0.03289602  0.66532282    -0.56900
O17         O  0.72003137  0.11184532  0.64839117    -0.55700
C18         C  0.73365607  0.94120023  0.66476712     0.78000
O19         O  0.74240246  0.08375944  0.66667934    -0.58100
O20         O  0.70610122  0.02720068  0.69984220    -0.56500
O21         O  0.73165053  0.02302169  0.60646222    -0.56500
O22         O  0.72051273  0.94726956  0.65023518    -0.55700
O23         O  0.32340439  0.94369049  0.65868194    -0.56900
C24         C  0.29551127  0.94930948  0.58634535     0.75700
O25         O  0.26983829  0.89178875  0.65873978    -0.58100
C26         C  0.32118691  0.94177369  0.68487705     0.75700
C27         C  0.27906617  0.03599675  0.65695285     0.78100
Cd28       Cd  0.29303444  0.94657043  0.64647096     1.37500
O29         O  0.30854085  0.95025311  0.60174680    -0.56900
O30         O  0.29258879  0.02965744  0.64367658    -0.55700
C31         C  0.27811687  0.85680497  0.65206283     0.78000
O32         O  0.27181731  0.00066879  0.66620506    -0.58100
O33         O  0.28152876  0.94698790  0.59891279    -0.56500
O34         O  0.30603857  0.94283030  0.69299565    -0.56500
O35         O  0.29300107  0.86389824  0.64380213    -0.55700
C36         C  0.41256588  0.93892911  0.83323639     0.04000
C37         C  0.42978219  0.94247163  0.82690398    -0.12100
C38         C  0.44176939  0.94773703  0.84836032     0.01500
C39         C  0.43632156  0.94737208  0.87632243    -0.10600
C40         C  0.41919861  0.94188810  0.88301769     0.04000
C41         C  0.40734249  0.93815870  0.86128260    -0.10100
H42         H  0.43370416  0.94231649  0.80550993     0.09600
H43         H  0.44540743  0.95221776  0.89300275     0.07200
H44         H  0.39398944  0.93494156  0.86616817     0.07000
O45         O  0.20266904  0.44944114  0.60731720    -0.56900
C46         C  0.18940195  0.44720276  0.68968359     0.75700
O47         O  0.23824267  0.38986174  0.67509329    -0.58100
C48         C  0.21576554  0.45132044  0.59225749     0.75700
C49         C  0.23272308  0.53386883  0.65899299     0.78100
Cd50       Cd  0.21810198  0.44444241  0.65245902     1.38700
O51         O  0.18780159  0.43781034  0.66395915    -0.56900
O52         O  0.21711458  0.52649090  0.65628339    -0.55700
C53         C  0.23208215  0.35480099  0.66361541     0.78000
O54         O  0.24198272  0.49902055  0.66074322    -0.58100
O55         O  0.20434120  0.45434209  0.69797944    -0.56500
O56         O  0.22970961  0.44875598  0.60504355    -0.56500
O57         O  0.21975024  0.36168360  0.64737788    -0.55700
C58         C  0.09323285  0.47000900  0.82810292     0.04000
C59         C  0.07635175  0.46209129  0.82076126    -0.12100
C60         C  0.06375041  0.46290085  0.84120831     0.01500
C61         C  0.06826138  0.47039313  0.86924136    -0.10600
C62         C  0.08509525  0.47864242  0.87692448     0.04000
C63         C  0.09749832  0.47909897  0.85604150    -0.10100
H64         H  0.07304562  0.45532895  0.79916005     0.09600
H65         H  0.05857466  0.46997102  0.88514127     0.07200
H66         H  0.11053629  0.48574079  0.86154458     0.07000
C67         C  0.90945080  0.48919335  0.84066049     0.04000
C68         C  0.90571115  0.48784542  0.86931969    -0.12100
C69         C  0.91875177  0.48434545  0.88913745     0.01500
C70         C  0.93542207  0.48071224  0.87983910    -0.10600
C71         C  0.93919623  0.48026796  0.85130108     0.04000
C72         C  0.92617370  0.48484622  0.83171145    -0.10100
H73         H  0.89275778  0.49086710  0.87612193     0.09600
H74         H  0.94561924  0.47866851  0.89494920     0.07200
H75         H  0.92906259  0.48599825  0.80959756     0.07000
O76         O  0.80993226  0.53139014  0.60817957    -0.56900
C77         C  0.81996976  0.53352744  0.69250095     0.75700
O78         O  0.77091079  0.58558551  0.66811704    -0.58100
C79         C  0.79730482  0.52987778  0.59190932     0.75700
C80         C  0.78008111  0.44126254  0.65974377     0.78100
Cd81       Cd  0.79324552  0.53220087  0.65187708     1.37500
O82         O  0.82292454  0.53656235  0.66653446    -0.56900
O83         O  0.79539746  0.45016172  0.65506717    -0.55700
C84         C  0.77869915  0.62091101  0.66012887     0.78000
O85         O  0.77046313  0.47527600  0.66207937    -0.58100
O86         O  0.80462813  0.53081178  0.69948361    -0.56500
O87         O  0.78300429  0.52950529  0.60351638    -0.56500
O88         O  0.79289005  0.61468319  0.64892948    -0.55700
C89         C  0.59607752  0.01031826  0.13908915     0.04000
C90         C  0.60090432  0.01484068  0.11098684    -0.12100
C91         C  0.58864243  0.01719843  0.08984921     0.01500
C92         C  0.57151662  0.01570842  0.09710842    -0.10600
C93         C  0.56652347  0.01087995  0.12513495     0.04000
C94         C  0.57893556  0.00786513  0.14603937    -0.10100
H95         H  0.61414308  0.01627746  0.10560918     0.09600
H96         H  0.56202497  0.01822352  0.08081545     0.07200
H97         H  0.57528204  0.00390305  0.16774258     0.07000
O98         O  0.68872182  0.00043137  0.30857346    -0.56900
C99         C  0.71675726  0.00837461  0.38118924     0.75700
O100        O  0.74180207  0.95741685  0.30516164    -0.58100
C101        C  0.69051309  0.00685369  0.28255626     0.75700
C102        C  0.73294873  0.09906996  0.31536484     0.78100
Cd103      Cd  0.71882509  0.00885986  0.32112656     1.37500
O104        O  0.70368410  0.01209981  0.36606093    -0.56900
O105        O  0.71876020  0.09129770  0.32634000    -0.55700
C106        C  0.73403515  0.92133966  0.31176740     0.78000
O107        O  0.74066824  0.06488403  0.30589460    -0.58100
O108        O  0.73058629  0.00403026  0.36843205    -0.56500
O109        O  0.70543531  0.01446998  0.27448116    -0.56500
O110        O  0.71955580  0.92628833  0.32219128    -0.55700
O111        O  0.31786263  0.97385523  0.30208607    -0.56900
C112        C  0.29366396  0.96203338  0.37483608     0.75700
O113        O  0.26687860  0.02269036  0.29481648    -0.58100
C114        C  0.31520675  0.98152712  0.27638229     0.75700
C115        C  0.27405199  0.88093299  0.30439540     0.78100
Cd116      Cd  0.28795801  0.96979555  0.31549767     1.37500
O117        O  0.30554189  0.97262842  0.35839358    -0.56900
O118        O  0.28970043  0.88824096  0.30658649    -0.55700
C119        C  0.27081574  0.05548855  0.31057672     0.78000
O120        O  0.26464530  0.91533182  0.30622087    -0.58100
O121        O  0.27938114  0.95514287  0.36375361    -0.56500
O122        O  0.29992955  0.98370000  0.26890845    -0.56500
O123        O  0.28212576  0.04797111  0.32862866    -0.55700
C124        C  0.41095197  0.00414582  0.13803979     0.04000
C125        C  0.40719502  0.99736010  0.10966149    -0.12100
C126        C  0.42019444  0.99402865  0.08995653     0.01500
C127        C  0.43697927  0.99856762  0.09901775    -0.10600
C128        C  0.44080348  0.00656535  0.12726923     0.04000
C129        C  0.42773584  0.00902683  0.14677978    -0.10100
H130        H  0.39418434  0.99390328  0.10305336     0.09600
H131        H  0.44714227  0.99556346  0.08406282     0.07200
H132        H  0.43061045  0.01433160  0.16871231     0.07000
O133        O  0.18849362  0.46488374  0.30785616    -0.56900
C134        C  0.21672446  0.46823067  0.38022710     0.75700
O135        O  0.23949550  0.41404062  0.30162130    -0.58100
C136        C  0.19090604  0.46423710  0.28166975     0.75700
C137        C  0.23286726  0.55663395  0.30868913     0.78100
Cd138      Cd  0.21853485  0.46865227  0.32009871     1.37500
O139        O  0.20358011  0.47205539  0.36528788    -0.56900
O140        O  0.21753360  0.55108789  0.31497424    -0.55700
C141        C  0.23129856  0.37946544  0.30971207     0.78000
O142        O  0.24176614  0.52118019  0.30723495    -0.58100
O143        O  0.23054729  0.46584274  0.36723127    -0.56500
O144        O  0.20605636  0.46609844  0.27360768    -0.56500
O145        O  0.21773683  0.38698274  0.32258741    -0.55700
C146        C  0.10046902  0.48906769  0.13415050     0.04000
C147        C  0.10477907  0.49219139  0.10578425    -0.12100
C148        C  0.09225202  0.49949096  0.08566346     0.01500
C149        C  0.07548157  0.50484291  0.09403790    -0.10600
C150        C  0.07097504  0.50066347  0.12230578     0.04000
C151        C  0.08358147  0.49246551  0.14225049    -0.10100
H152        H  0.11775569  0.48791963  0.09937458     0.09600
H153        H  0.06583781  0.51073907  0.07833656     0.07200
H154        H  0.08028854  0.48865878  0.16411654     0.07000
C155        C  0.91693229  0.51745878  0.14654009     0.04000
C156        C  0.93374625  0.51736205  0.15555854    -0.12100
C157        C  0.94677218  0.51667107  0.13596887     0.01500
C158        C  0.94293904  0.51506381  0.10729645    -0.10600
C159        C  0.92613815  0.51541765  0.09803358     0.04000
C160        C  0.91319168  0.51700957  0.11786442    -0.10100
H161        H  0.93667570  0.51872653  0.17771190     0.09600
H162        H  0.95307195  0.51363957  0.09221548     0.07200
H163        H  0.90016775  0.51782652  0.11102026     0.07000
O164        O  0.82292894  0.51300828  0.30897369    -0.56900
C165        C  0.79786972  0.50790176  0.38108686     0.75700
O166        O  0.77263866  0.56687540  0.30126170    -0.58100
C167        C  0.82036316  0.51971519  0.28313332     0.75700
C168        C  0.77892378  0.42139631  0.31361202     0.78100
Cd169      Cd  0.79299301  0.51147205  0.32182073     1.37500
O170        O  0.81023313  0.51246203  0.36460489    -0.56900
O171        O  0.79455641  0.42960657  0.31425369    -0.55700
C172        C  0.77805719  0.59999346  0.31560185     0.78000
O173        O  0.76948608  0.45585686  0.31490206    -0.58100
O174        O  0.78343176  0.50393607  0.37003589    -0.56500
O175        O  0.80513884  0.52266852  0.27539291    -0.56500
O176        O  0.78985787  0.59155991  0.33259415    -0.55700
C177        C  0.86319983  0.54708664  0.25135565    -0.04600
C178        C  0.86194771  0.52470645  0.22546375     0.09600
C179        C  0.84684546  0.50271177  0.21784351    -0.01900
C180        C  0.83308574  0.50217625  0.23632632    -0.00200
C181        C  0.83446936  0.52304729  0.26286889    -0.03800
C182        C  0.84952919  0.54619465  0.27009129     0.03200
C183        C  0.87659566  0.52375779  0.20609650     0.10000
C184        C  0.84558585  0.48012948  0.19099444     0.35900
C185        C  0.85084948  0.57037507  0.29637415     0.39400
C186        C  0.88684563  0.48496802  0.20488093    -0.04200
C187        C  0.89997063  0.48264495  0.18523352     0.03000
C188        C  0.90311370  0.51959442  0.16717939    -0.03800
C189        C  0.89297595  0.55864533  0.16868910     0.00000
C190        C  0.87972352  0.56066994  0.18809966    -0.02600
C191        C  0.88377340  0.44738795  0.22380138     0.36700
C192        C  0.89620924  0.59676112  0.15025576     0.40300
C193        C  0.90973676  0.44149782  0.18283690     0.39400
C194        C  0.86922444  0.60060788  0.18951591     0.36400
C195        C  0.87860361  0.57098436  0.25862195     0.37000
C196        C  0.81770961  0.47892848  0.22814470     0.40300
N197        N  0.91733413  0.40834274  0.18094759    -0.37800
N198        N  0.88131105  0.41750897  0.23895346    -0.39400
N199        N  0.89880636  0.62693065  0.13538889    -0.37100
N200        N  0.86087869  0.63252924  0.19073969    -0.39500
N201        N  0.84466013  0.46199802  0.16962597    -0.39300
N202        N  0.80542740  0.46059012  0.22150583    -0.36900
N203        N  0.85193993  0.58980625  0.31728396    -0.38000
N204        N  0.89088493  0.59019693  0.26423862    -0.39600
C205        C  0.99033714  0.48088226  0.15970660    -0.04600
C206        C  0.99998563  0.51752800  0.14939107     0.09600
C207        C  0.99178585  0.55724232  0.14026311    -0.01900
C208        C  0.97408725  0.55846986  0.13900288    -0.00200
C209        C  0.96462528  0.51916639  0.14495592    -0.03800
C210        C  0.97267079  0.48114747  0.15676468     0.03200
C211        C  0.01839281  0.51159915  0.14416449     0.10000
C212        C  0.00150358  0.59588428  0.13065057     0.35900
C213        C  0.96295280  0.44147139  0.16449877     0.39400
C214        C  0.02358878  0.48117821  0.12321564    -0.04200
C215        C  0.04080313  0.47542423  0.11757896     0.03000
C216        C  0.05294780  0.50336589  0.13076072    -0.03800
C217        C  0.04771110  0.53427361  0.15156362     0.00000
C218        C  0.03055208  0.53706500  0.15894976    -0.02600
C219        C  0.01114741  0.45660635  0.10679105     0.36700
C220        C  0.05981839  0.56439546  0.16473348     0.40300
C221        C  0.04591410  0.43960926  0.09879365     0.39400
C222        C  0.02536659  0.56644933  0.18154767     0.36400
C223        C  0.99871905  0.44197362  0.17189571     0.37000
C224        C  0.96554873  0.60010033  0.13159122     0.40300
N225        N  0.04971723  0.41060537  0.08394288    -0.37800
N226        N  0.00120251  0.43725651  0.09365801    -0.39400
N227        N  0.06948527  0.58842311  0.17522045    -0.37100
N228        N  0.02122662  0.58992227  0.19956233    -0.39500
N229        N  0.00926033  0.62676698  0.12306350    -0.39300
N230        N  0.95873294  0.63357502  0.12627754    -0.36900
N231        N  0.95536569  0.40952743  0.17073589    -0.38000
N232        N  0.00544641  0.41100098  0.18161057    -0.39600
C233        C  0.12681658  0.43616923  0.19199181    -0.04600
C234        C  0.13871277  0.47082742  0.19693211     0.09600
C235        C  0.13828658  0.51090462  0.18087497    -0.01900
C236        C  0.12556082  0.51716278  0.16072569    -0.00200
C237        C  0.11371220  0.48241610  0.15559589    -0.03800
C238        C  0.11438658  0.44180538  0.17120095     0.03200
C239        C  0.15148399  0.46591432  0.21962289     0.10000
C240        C  0.15107943  0.54547981  0.18495940     0.35900
C241        C  0.10232665  0.40582576  0.16581651     0.39400
C242        C  0.16599435  0.43965757  0.21528224    -0.04200
C243        C  0.17852859  0.43729697  0.23614798     0.03000
C244        C  0.17679685  0.46227119  0.26122371    -0.03800
C245        C  0.16188137  0.48716746  0.26589697     0.00000
C246        C  0.14927221  0.48887086  0.24513752    -0.02600
C247        C  0.16814751  0.41590587  0.18902534     0.36700
C248        C  0.15969093  0.51261955  0.29151796     0.40300
C249        C  0.19297534  0.40817694  0.23197655     0.39400
C250        C  0.13413617  0.51518220  0.24969174     0.36400
C251        C  0.12743648  0.39474759  0.20828954     0.37000
C252        C  0.12419515  0.56012099  0.14614661     0.40300
N253        N  0.20443126  0.38473595  0.22864593    -0.37800
N254        N  0.16979387  0.39706566  0.16803884    -0.39400
N255        N  0.15790988  0.53284999  0.31197121    -0.37100
N256        N  0.12209202  0.53629658  0.25322621    -0.39500
N257        N  0.16137266  0.57284795  0.18810981    -0.39300
N258        N  0.12296709  0.59450343  0.13470740    -0.36900
N259        N  0.09266639  0.37721095  0.16156243    -0.38000
N260        N  0.12802804  0.36164494  0.22122552    -0.39600
C261        C  0.25329455  0.17042853  0.33041343    -0.04600
C262        C  0.25250130  0.19215300  0.30416592     0.09600
C263        C  0.25624626  0.16777559  0.27968254    -0.01900
C264        C  0.26159927  0.12236528  0.28153934    -0.00200
C265        C  0.26305964  0.10101537  0.30797199    -0.03800
C266        C  0.25837249  0.12490711  0.33231066     0.03200
C267        C  0.24735385  0.24066044  0.30251033     0.10000
C268        C  0.25472642  0.18971884  0.25263139     0.35900
C269        C  0.25827186  0.10228118  0.35928408     0.39400
C270        C  0.25946775  0.27535631  0.30559668    -0.04200
C271        C  0.25438900  0.32101827  0.30688701     0.03000
C272        C  0.23709382  0.33222175  0.30496214    -0.03800
C273        C  0.22509049  0.29727475  0.30038490     0.00000
C274        C  0.23021370  0.25173467  0.29953521    -0.02600
C275        C  0.27713677  0.26380440  0.30837219     0.36700
C276        C  0.20741158  0.30789471  0.29624281     0.40300
C277        C  0.26694715  0.35597956  0.31163735     0.39400
C278        C  0.21778940  0.21592720  0.29644968     0.36400
C279        C  0.24890926  0.19518386  0.35549716     0.37000
C280        C  0.26624515  0.09840640  0.25631234     0.40300
N281        N  0.27697889  0.38383426  0.31544628    -0.37800
N282        N  0.29123180  0.25459751  0.31063394    -0.39400
N283        N  0.19331163  0.31625739  0.29292920    -0.37100
N284        N  0.20791774  0.18725344  0.29413865    -0.39500
N285        N  0.25343526  0.20726839  0.23107016    -0.39300
N286        N  0.26994682  0.07933832  0.23616008    -0.36900
N287        N  0.25804932  0.08416966  0.38077065    -0.38000
N288        N  0.24541186  0.21512979  0.37542151    -0.39600
C289        C  0.24768652  0.77416820  0.31555930    -0.04600
C290        C  0.25671255  0.74221322  0.29974456     0.09600
C291        C  0.27064401  0.75649323  0.28373355    -0.01900
C292        C  0.27596361  0.80213067  0.28440309    -0.00200
C293        C  0.26727002  0.83407689  0.30097869    -0.03800
C294        C  0.25279170  0.81996469  0.31594797     0.03200
C295        C  0.25146633  0.69342208  0.30008207     0.10000
C296        C  0.27948618  0.72404178  0.26653433     0.35900
C297        C  0.24341264  0.85199701  0.33266711     0.39400
C298        C  0.23720975  0.67920304  0.28470299    -0.04200
C299        C  0.23133864  0.63420890  0.28694438     0.03000
C300        C  0.23996480  0.60271568  0.30407651    -0.03800
C301        C  0.25476992  0.61644393  0.31829756     0.00000
C302        C  0.26035308  0.66178512  0.31661106    -0.02600
C303        C  0.22854657  0.71118055  0.26669555     0.36700
C304        C  0.26384060  0.58449685  0.33576881     0.40300
C305        C  0.21652414  0.62025410  0.27127796     0.39400
C306        C  0.27494536  0.67630794  0.33262660     0.36400
C307        C  0.23332418  0.75955520  0.33201262     0.37000
C308        C  0.29017922  0.81624705  0.26744340     0.40300
N309        N  0.20470145  0.60919944  0.25877061    -0.37800
N310        N  0.22171982  0.73687826  0.25234884    -0.39400
N311        N  0.27106009  0.55887441  0.34962964    -0.37100
N312        N  0.28657000  0.68787540  0.34545694    -0.39500
N313        N  0.28650894  0.69807485  0.25282522    -0.39300
N314        N  0.30150494  0.82742390  0.25386323    -0.36900
N315        N  0.23584983  0.87749905  0.34591308    -0.38000
N316        N  0.22187515  0.74780586  0.34511142    -0.39600
C317        C  0.35769074  0.01483645  0.24498214    -0.04600
C318        C  0.35607088  0.99800702  0.21755855     0.09600
C319        C  0.34101771  0.97634362  0.20924221    -0.01900
C320        C  0.32766486  0.97100235  0.22834579    -0.00200
C321        C  0.32924017  0.98757593  0.25603870    -0.03800
C322        C  0.34435925  0.00969926  0.26417769     0.03200
C323        C  0.37059118  0.00053339  0.19779639     0.10000
C324        C  0.33948193  0.95855637  0.18107351     0.35900
C325        C  0.34624491  0.02781808  0.29219041     0.39400
C326        C  0.38034263  0.96155761  0.19290009    -0.04200
C327        C  0.39358390  0.96292934  0.17342764     0.03000
C328        C  0.39725242  0.00339277  0.15894369    -0.03800
C329        C  0.38769177  0.04259050  0.16407617     0.00000
C330        C  0.37433549  0.04115388  0.18344649    -0.02600
C331        C  0.37657996  0.91985470  0.20772702     0.36700
C332        C  0.39161300  0.08424736  0.14933598     0.40300
C333        C  0.40321819  0.92239276  0.16782328     0.39400
C334        C  0.36430257  0.08119543  0.18837103     0.36400
C335        C  0.37324391  0.03680889  0.25355690     0.37000
C336        C  0.31267345  0.94644302  0.21965922     0.40300
N337        N  0.41082566  0.88994980  0.16329224    -0.37800
N338        N  0.37348052  0.88660776  0.21949575    -0.39400
N339        N  0.39480158  0.11740253  0.13752825    -0.37100
N340        N  0.35631384  0.11317870  0.19233691    -0.39500
N341        N  0.33839747  0.94416306  0.15865605    -0.39300
N342        N  0.30077818  0.92671939  0.21260026    -0.36900
N343        N  0.34780259  0.04213137  0.31455783    -0.38000
N344        N  0.38564325  0.05438849  0.26036814    -0.39600
C345        C  0.76362481  0.71224845  0.28395446    -0.04600
C346        C  0.76014788  0.73766495  0.30821915     0.09600
C347        C  0.76213152  0.71734891  0.33479070    -0.01900
C348        C  0.76783484  0.67236315  0.33714488    -0.00200
C349        C  0.77120394  0.64666969  0.31287278    -0.03800
C350        C  0.76896042  0.66679990  0.28623793     0.03200
C351        C  0.75406887  0.78563916  0.30607532     0.10000
C352        C  0.75816129  0.74279966  0.35980851     0.35900
C353        C  0.77283664  0.64149463  0.26114615     0.39400
C354        C  0.73733038  0.79460381  0.29779057    -0.04200
C355        C  0.73097994  0.83909456  0.29879730     0.03000
C356        C  0.74134884  0.87530319  0.30799848    -0.03800
C357        C  0.75833833  0.86649911  0.31521063     0.00000
C358        C  0.76465949  0.82190119  0.31414913    -0.02600
C359        C  0.72651158  0.75776484  0.28867721     0.36700
C360        C  0.76910249  0.90271193  0.32536306     0.40300
C361        C  0.71369699  0.84741892  0.29026869     0.39400
C362        C  0.78200556  0.81302183  0.32201907     0.36400
C363        C  0.76193944  0.73318359  0.25662606     0.37000
C364        C  0.76994646  0.65235174  0.36469644     0.40300
N365        N  0.69989487  0.85399123  0.28356816    -0.37800
N366        N  0.71795301  0.72839497  0.28117287    -0.39400
N367        N  0.77770092  0.93150042  0.33357678    -0.37100
N368        N  0.79581240  0.80581052  0.32841571    -0.39500
N369        N  0.75502541  0.76324243  0.37970910    -0.39300
N370        N  0.77169873  0.63646321  0.38666150    -0.36900
N371        N  0.77594147  0.62134650  0.24111402    -0.38000
N372        N  0.76054012  0.74991703  0.23483710    -0.39600
C373        C  0.74463767  0.22001481  0.33620602    -0.04600
C374        C  0.75268307  0.23603275  0.31185881     0.09600
C375        C  0.75465268  0.20685312  0.28882655    -0.01900
C376        C  0.74852547  0.16189030  0.29003015    -0.00200
C377        C  0.74006352  0.14596504  0.31418087    -0.03800
C378        C  0.73820863  0.17544434  0.33732450     0.03200
C379        C  0.75959670  0.28335897  0.31100523     0.10000
C380        C  0.76305298  0.22326633  0.26388810     0.35900
C381        C  0.73020828  0.15968560  0.36282382     0.39400
C382        C  0.77584670  0.29231937  0.32152830    -0.04200
C383        C  0.78207053  0.33710402  0.32258608     0.03000
C384        C  0.77223327  0.37373605  0.31224011    -0.03800
C385        C  0.75591658  0.36424525  0.30138189     0.00000
C386        C  0.74966625  0.31934052  0.30091137    -0.02600
C387        C  0.78610523  0.25512322  0.33164327     0.36700
C388        C  0.74542407  0.40033917  0.29052491     0.40300
C389        C  0.79830280  0.34507663  0.33579816     0.39400
C390        C  0.73289622  0.30998253  0.29019171     0.36400
C391        C  0.74327501  0.24936988  0.36036159     0.37000
C392        C  0.75060770  0.13252291  0.26607189     0.40300
N393        N  0.81121063  0.35114699  0.34651690    -0.37800
N394        N  0.79424694  0.22534342  0.33961584    -0.39400
N395        N  0.73695366  0.42900953  0.28194501    -0.37100
N396        N  0.71952117  0.30241051  0.28165741    -0.39500
N397        N  0.76974697  0.23651143  0.24400949    -0.39300
N398        N  0.75232698  0.10907121  0.24696772    -0.36900
N399        N  0.72384245  0.14733664  0.38321528    -0.38000
N400        N  0.74232381  0.27276630  0.37964700    -0.39600
C401        C  0.52017364  0.97678360  0.12367482    -0.04600
C402        C  0.51289926  0.00959553  0.14123142     0.09600
C403        C  0.52343561  0.04032229  0.15564960    -0.01900
C404        C  0.54095435  0.04105149  0.15046368    -0.00200
C405        C  0.54821290  0.00885999  0.13227320    -0.03800
C406        C  0.53775509  0.97547791  0.12000674     0.03200
C407        C  0.49409043  0.01324641  0.14280337     0.10000
C408        C  0.51617998  0.07119102  0.17576114     0.35900
C409        C  0.54501002  0.93880443  0.10411949     0.39400
C410        C  0.48443672  0.97829312  0.15516456    -0.04200
C411        C  0.46679820  0.97707595  0.15139732     0.03000
C412        C  0.45870284  0.01159287  0.13600039    -0.03800
C413        C  0.46812358  0.04925729  0.12669365     0.00000
C414        C  0.48580013  0.04959008  0.12939604    -0.02600
C415        C  0.49276636  0.94268783  0.17082333     0.36700
C416        C  0.45956503  0.08802985  0.11474563     0.40300
C417        C  0.45710619  0.93948487  0.16249867     0.39400
C418        C  0.49548133  0.08640718  0.11725595     0.36400
C419        C  0.50951493  0.94469435  0.10887544     0.37000
C420        C  0.55131617  0.07619786  0.16291166     0.40300
N421        N  0.44944516  0.90947260  0.17152883    -0.37800
N422        N  0.49943000  0.91420371  0.18322462    -0.39400
N423        N  0.45278659  0.11948833  0.10578144    -0.37100
N424        N  0.50319906  0.11583003  0.10762409    -0.39500
N425        N  0.51034370  0.09552934  0.19193419    -0.39300
N426        N  0.55955485  0.10437142  0.17277918    -0.36900
N427        N  0.55041391  0.90874102  0.09167168    -0.38000
N428        N  0.50101809  0.91900733  0.09718703    -0.39600
C429        C  0.62901533  0.04925239  0.19177504    -0.04600
C430        C  0.63421732  0.00767917  0.20352496     0.09600
C431        C  0.62635852  0.96708691  0.19486988    -0.01900
C432        C  0.61406083  0.96779143  0.17349136    -0.00200
C433        C  0.60905170  0.00929974  0.16150268    -0.03800
C434        C  0.61632218  0.05007770  0.17106169     0.03200
C435        C  0.64850234  0.00642413  0.22411240     0.10000
C436        C  0.63083230  0.92471064  0.20825051     0.35900
C437        C  0.61062434  0.09289621  0.15963816     0.39400
C438        C  0.64599291  0.01918939  0.25215703    -0.04200
C439        C  0.65963585  0.01953646  0.27122256     0.03000
C440        C  0.67592119  0.00578031  0.26257544    -0.03800
C441        C  0.67817751  0.99134290  0.23455599     0.00000
C442        C  0.66461946  0.99257219  0.21537620    -0.02600
C443        C  0.62928271  0.03193364  0.26136603     0.36700
C444        C  0.69423760  0.97342205  0.22547142     0.40300
C445        C  0.65684882  0.03540146  0.29950272     0.39400
C446        C  0.66723920  0.97982709  0.18642555     0.36400
C447        C  0.63679899  0.09115643  0.20091752     0.37000
C448        C  0.60684645  0.92577201  0.16331846     0.40300
N449        N  0.65458962  0.04810037  0.32204626    -0.37800
N450        N  0.61593768  0.04201124  0.26867611    -0.39400
N451        N  0.70697451  0.95878853  0.21813589    -0.37100
N452        N  0.66924424  0.96976580  0.16330934    -0.39500
N453        N  0.63433408  0.89101668  0.21914422    -0.39300
N454        N  0.60117133  0.89225832  0.15501983    -0.36900
N455        N  0.60596614  0.12696537  0.15056074    -0.38000
N456        N  0.64296215  0.12462078  0.20829041    -0.39600
C457        C  0.80998710  0.54732912  0.45400277    -0.04600
C458        C  0.80128243  0.51576505  0.47078385     0.09600
C459        C  0.79244730  0.47964241  0.45815880    -0.01900
C460        C  0.79171379  0.47620245  0.42877251    -0.00200
C461        C  0.79998925  0.50868277  0.41188748    -0.03800
C462        C  0.80945820  0.54366350  0.42463194     0.03200
C463        C  0.80090975  0.52140607  0.50181843     0.10000
C464        C  0.78402705  0.44621104  0.47549279     0.35900
C465        C  0.81805449  0.57715354  0.40756366     0.39400
C466        C  0.78811651  0.54735791  0.51419664    -0.04200
C467        C  0.78713500  0.55089037  0.54354467     0.03000
C468        C  0.79901802  0.52839547  0.56084105    -0.03800
C469        C  0.81223928  0.50375580  0.54817723     0.00000
C470        C  0.81318526  0.50054561  0.51876884    -0.02600
C471        C  0.77604908  0.57086368  0.49657333     0.36700
C472        C  0.82456639  0.48016079  0.56520677     0.40300
C473        C  0.77406087  0.57868127  0.55573770     0.39400
C474        C  0.82681718  0.47585237  0.50577188     0.36400
C475        C  0.81918619  0.58416680  0.46704868     0.37000
C476        C  0.78270363  0.43875343  0.41593709     0.40300
N477        N  0.76360055  0.60083890  0.56536094    -0.37800
N478        N  0.76650960  0.58980326  0.48247087    -0.39400
N479        N  0.83444029  0.46126005  0.57868038    -0.37100
N480        N  0.83771512  0.45646924  0.49524734    -0.39500
N481        N  0.77736819  0.41946836  0.48934694    -0.39300
N482        N  0.77555906  0.40887565  0.40565244    -0.36900
N483        N  0.82491714  0.60373430  0.39386393    -0.38000
N484        N  0.82649759  0.61358327  0.47749584    -0.39600
C485        C  0.90599125  0.52853300  0.96090345    -0.04600
C486        C  0.91464508  0.49801545  0.97853389     0.09600
C487        C  0.92297724  0.46054101  0.96680308    -0.01900
C488        C  0.92260689  0.45355293  0.93774192    -0.00200
C489        C  0.91549917  0.48656247  0.91980503    -0.03800
C490        C  0.90703260  0.52401644  0.93158606     0.03200
C491        C  0.91582177  0.50601951  0.00937100     0.10000
C492        C  0.93262784  0.43021931  0.98456134     0.35900
C493        C  0.90032313  0.55947335  0.91375866     0.39400
C494        C  0.90818816  0.47540313  0.02818448    -0.04200
C495        C  0.91169400  0.47812906  0.05703806     0.03000
C496        C  0.92208007  0.51328104  0.06756046    -0.03800
C497        C  0.92878976  0.54576012  0.04879159     0.00000
C498        C  0.92599090  0.54150966  0.01978273    -0.02600
C499        C  0.89708490  0.44020190  0.01764026     0.36700
C500        C  0.93852904  0.58383052  0.05915068     0.40300
C501        C  0.90532518  0.44316984  0.07560622     0.39400
C502        C  0.93403887  0.57285663  0.00053719     0.36400
C503        C  0.89632695  0.56511161  0.97295530     0.37000
C504        C  0.92968610  0.41237902  0.92631731     0.40300
N505        N  0.90029427  0.41521178  0.09040523    -0.37800
N506        N  0.88828305  0.41209554  0.00913171    -0.39400
N507        N  0.94631717  0.61444767  0.06701178    -0.37100
N508        N  0.94041537  0.59783588  0.98514666    -0.39500
N509        N  0.94038859  0.40633824  0.99879790    -0.39300
N510        N  0.93530109  0.37950770  0.91723624    -0.36900
N511        N  0.89506023  0.58783682  0.89950534    -0.38000
N512        N  0.88855179  0.59420545  0.98252940    -0.39600
C513        C  0.87180589  0.47307201  0.79233250    -0.04600
C514        C  0.87140481  0.51527906  0.77841225     0.09600
C515        C  0.88325638  0.54911532  0.78541228    -0.01900
C516        C  0.89538746  0.54089354  0.80636660    -0.00200
C517        C  0.89601078  0.49836542  0.81985926    -0.03800
C518        C  0.88416283  0.46451898  0.81289064     0.03200
C519        C  0.85879022  0.52329590  0.75568710     0.10000
C520        C  0.88323422  0.59190740  0.77051426     0.35900
C521        C  0.88501078  0.42050958  0.82629540     0.39400
C522        C  0.84414753  0.54864539  0.76097608    -0.04200
C523        C  0.83163837  0.55304650  0.74012478     0.03000
C524        C  0.83373317  0.53211791  0.71373659    -0.03800
C525        C  0.84878112  0.50816484  0.70822112     0.00000
C526        C  0.86124908  0.50396937  0.72911437    -0.02600
C527        C  0.84190858  0.56986172  0.78802525     0.36700
C528        C  0.85120333  0.48576228  0.68158470     0.40300
C529        C  0.81672395  0.57965392  0.74585948     0.39400
C530        C  0.87658245  0.47906753  0.72349855     0.36400
C531        C  0.85967160  0.43818089  0.78504063     0.37000
C532        C  0.90720642  0.57625877  0.81423845     0.40300
N533        N  0.80482012  0.60080566  0.75046405    -0.37800
N534        N  0.84016765  0.58701058  0.80954025    -0.39400
N535        N  0.85317242  0.46779554  0.66038260    -0.37100
N536        N  0.88881576  0.45916929  0.71916332    -0.39500
N537        N  0.88327716  0.62598325  0.75854490    -0.39300
N538        N  0.91665448  0.60429506  0.82069509    -0.36900
N539        N  0.88573204  0.38536273  0.83694016    -0.38000
N540        N  0.85002218  0.41037502  0.77903977    -0.39600
C541        C  0.08346864  0.52048410  0.95230470    -0.04600
C542        C  0.09590796  0.49352971  0.96527208     0.09600
C543        C  0.10572031  0.46419747  0.94883205    -0.01900
C544        C  0.10204160  0.45859833  0.92015570    -0.00200
C545        C  0.08961534  0.48572564  0.90702016    -0.03800
C546        C  0.08091001  0.51818379  0.92315246     0.03200
C547        C  0.09754847  0.49319741  0.99650952     0.10000
C548        C  0.11939440  0.43906748  0.96165370     0.35900
C549        C  0.06938581  0.54961338  0.90981908     0.39400
C550        C  0.09213139  0.45489764  0.01184200    -0.04200
C551        C  0.09214430  0.45585216  0.04123606     0.03000
C552        C  0.09608256  0.49623549  0.05545134    -0.03800
C553        C  0.10222732  0.53388199  0.04039681     0.00000
C554        C  0.10346380  0.53182563  0.01097235    -0.02600
C555        C  0.08581190  0.41515306  0.99742580     0.36700
C556        C  0.10686214  0.57492121  0.05510325     0.40300
C557        C  0.08828847  0.41511946  0.05699443     0.39400
C558        C  0.11057589  0.56953351  0.99549770     0.36400
C559        C  0.07277089  0.54920563  0.96916205     0.37000
C560        C  0.11033363  0.42286215  0.90477301     0.40300
N561        N  0.08558694  0.38247134  0.06964012    -0.37800
N562        N  0.08072623  0.38351077  0.98591758    -0.39400
N563        N  0.11053199  0.60774074  0.06681015    -0.37100
N564        N  0.11632946  0.59947777  0.98309908    -0.39500
N565        N  0.13033456  0.41922002  0.97192598    -0.39300
N566        N  0.11686238  0.39411379  0.89258644    -0.36900
N567        N  0.06024156  0.57483201  0.89921714    -0.38000
N568        N  0.06420016  0.57180745  0.98272031    -0.39600
C569        C  0.01828617  0.42279451  0.84433008    -0.04600
C570        C  0.01018004  0.45625693  0.82807050     0.09600
C571        C  0.01994454  0.48674261  0.81210147    -0.01900
C572        C  0.03757757  0.48831141  0.81563545    -0.00200
C573        C  0.04564210  0.45700919  0.83363411    -0.03800
C574        C  0.03599988  0.42245350  0.84646467     0.03200
C575        C  0.99166957  0.46409792  0.83128615     0.10000
C576        C  0.01165585  0.51797532  0.79311338     0.35900
C577        C  0.04431583  0.38703994  0.86233346     0.39400
C578        C  0.98615848  0.50246599  0.84622886    -0.04200
C579        C  0.96888707  0.50921900  0.85099487     0.03000
C580        C  0.95703036  0.47630846  0.84239103    -0.03800
C581        C  0.96247125  0.43820300  0.82714700     0.00000
C582        C  0.97970851  0.43286396  0.82087080    -0.02600
C583        C  0.99833091  0.53446678  0.85746940     0.36700
C584        C  0.95047731  0.40331384  0.81924141     0.40300
C585        C  0.96331011  0.55008863  0.86488785     0.39400
C586        C  0.98516881  0.39508991  0.80395227     0.36400
C587        C  0.00839602  0.39010295  0.85998784     0.37000
C588        C  0.04714888  0.52436181  0.80245114     0.40300
N589        N  0.95884561  0.58268066  0.87591434    -0.37800
N590        N  0.00807604  0.55991187  0.86635573    -0.39400
N591        N  0.94087622  0.37541669  0.81318045    -0.37100
N592        N  0.98949962  0.36499079  0.79037611    -0.39500
N593        N  0.00494647  0.54267529  0.77796081    -0.39300
N594        N  0.05472211  0.55335949  0.79204345    -0.36900
N595        N  0.05098698  0.35873696  0.87488410    -0.38000
N596        N  0.00049369  0.36392820  0.87238147    -0.39600
C597        C  0.22677020  0.48704792  0.51770588    -0.04600
C598        C  0.21506580  0.46162415  0.50196340     0.09600
C599        C  0.20306514  0.43440621  0.51582440    -0.01900
C600        C  0.20287078  0.43213350  0.54532530    -0.00200
C601        C  0.21499937  0.45627069  0.56121329    -0.03800
C602        C  0.22674444  0.48451010  0.54718785     0.03200
C603        C  0.21542868  0.46332965  0.47066296     0.10000
C604        C  0.19111734  0.40799329  0.49958686     0.35900
C605        C  0.23838658  0.51253916  0.56304409     0.39400
C606        C  0.22661644  0.43546803  0.45579254    -0.04200
C607        C  0.22699463  0.43690453  0.42630660     0.03000
C608        C  0.21607767  0.46623382  0.41137095    -0.03800
C609        C  0.20472464  0.49376870  0.42641059     0.00000
C610        C  0.20455873  0.49261487  0.45593068    -0.02600
C611        C  0.23773286  0.40515905  0.47095007     0.36700
C612        C  0.19348415  0.52429040  0.41168046     0.40300
C613        C  0.23827653  0.40692477  0.41143545     0.39400
C614        C  0.19341067  0.52221641  0.47128574     0.36400
C615        C  0.23884722  0.51587936  0.50344161     0.37000
C616        C  0.19036009  0.40414733  0.55916617     0.40300
N617        N  0.24726826  0.38303569  0.39956872    -0.37800
N618        N  0.24661118  0.38103662  0.48305484    -0.39400
N619        N  0.18446844  0.54851700  0.39993604    -0.37100
N620        N  0.18458366  0.54597656  0.48356774    -0.39500
N621        N  0.18163853  0.38683760  0.48657806    -0.39300
N622        N  0.18029010  0.38209936  0.57021104    -0.36900
N623        N  0.24760018  0.53508062  0.57569366    -0.38000
N624        N  0.24846845  0.53882297  0.49199793    -0.39600
C625        C  0.16294579  0.44749939  0.75665648    -0.04600
C626        C  0.14681294  0.45777300  0.74615684     0.09600
C627        C  0.14445450  0.46386836  0.71719485    -0.01900
C628        C  0.15825900  0.46057175  0.69872978    -0.00200
C629        C  0.17461340  0.45016700  0.70909868    -0.03800
C630        C  0.17675426  0.44339157  0.73834803     0.03200
C631        C  0.13229110  0.46152815  0.76588937     0.10000
C632        C  0.12772122  0.47334986  0.70642676     0.35900
C633        C  0.19302496  0.43108170  0.74994460     0.39400
C634        C  0.12803459  0.50382315  0.77746873    -0.04200
C635        C  0.11525139  0.50670646  0.79780917     0.03000
C636        C  0.10659647  0.46731484  0.80651685    -0.03800
C637        C  0.11081918  0.42504998  0.79482914     0.00000
C638        C  0.12354160  0.42224137  0.77442600    -0.02600
C639        C  0.13696345  0.54425777  0.76863147     0.36700
C640        C  0.10255581  0.38418582  0.80471314     0.40300
C641        C  0.11106292  0.55011669  0.80995595     0.39400
C642        C  0.12783640  0.37882564  0.76242474     0.36400
C643        C  0.16525291  0.44082559  0.78651931     0.37000
C644        C  0.15551675  0.46935657  0.66919710     0.40300
N645        N  0.10773915  0.58461694  0.81983914    -0.37800
N646        N  0.14406929  0.57654417  0.76154130    -0.39400
N647        N  0.09600368  0.35167015  0.81280319    -0.37100
N648        N  0.13127691  0.34423078  0.75279063    -0.39500
N649        N  0.11435944  0.48073037  0.69784293    -0.39300
N650        N  0.15326560  0.47645206  0.64566301    -0.36900
N651        N  0.20595530  0.42129516  0.75939259    -0.38000
N652        N  0.16698525  0.43548388  0.81033888    -0.39600
C653        C  0.40462051  0.93685824  0.02285303    -0.04600
C654        C  0.41199062  0.96483084  0.00219289     0.09600
C655        C  0.42110408  0.00375445  0.01049371    -0.01900
C656        C  0.42266204  0.01482805  0.03901085    -0.00200
C657        C  0.41644096  0.98511462  0.05979685    -0.03800
C658        C  0.40733332  0.94602631  0.05152589     0.03200
C659        C  0.41071466  0.95329491  0.97166151     0.10000
C660        C  0.42928839  0.03204961  0.98966552     0.35900
C661        C  0.40130736  0.91418081  0.07238873     0.39400
C662        C  0.40223305  0.98266117  0.95303933    -0.04200
C663        C  0.40425208  0.97789998  0.92388162     0.03000
C664        C  0.41404055  0.94220140  0.91305109    -0.03800
C665        C  0.42042877  0.90916512  0.93165621     0.00000
C666        C  0.41932308  0.91548386  0.96083215    -0.02600
C667        C  0.39195396  0.01898022  0.96398568     0.36700
C668        C  0.42776880  0.86803767  0.92078879     0.40300
C669        C  0.39680997  0.01111660  0.90535234     0.39400
C670        C  0.42763426  0.88399422  0.97961613     0.36400
C671        C  0.39437205  0.89839128  0.01458701     0.37000
C672        C  0.43027326  0.05766892  0.04678130     0.40300
N673        N  0.39063603  0.03813701  0.89115816    -0.37800
N674        N  0.38379305  0.04803627  0.97267764    -0.39400
N675        N  0.43324447  0.83450070  0.91244768    -0.37100
N676        N  0.43416929  0.85878632  0.99466129    -0.39500
N677        N  0.43581249  0.05457514  0.97305814    -0.39300
N678        N  0.43618321  0.09225312  0.05252736    -0.36900
N679        N  0.39654325  0.88872133  0.08903658    -0.38000
N680        N  0.38624339  0.86762405  0.00795991    -0.39600
C681        C  0.31044262  0.93045137  0.51131663    -0.04600
C682        C  0.29800749  0.95368487  0.49593844     0.09600
C683        C  0.28486290  0.97575680  0.51006900    -0.01900
C684        C  0.28401237  0.97431331  0.53950468    -0.00200
C685        C  0.29647834  0.95101047  0.55518072    -0.03800
C686        C  0.30971149  0.92900996  0.54081243     0.03200
C687        C  0.29830575  0.95377868  0.46466841     0.10000
C688        C  0.27214540  0.99993386  0.49414639     0.35900
C689        C  0.32219528  0.90304339  0.55611738     0.39400
C690        C  0.28985467  0.91938399  0.44977101    -0.04200
C691        C  0.28876138  0.92142125  0.42036200     0.03000
C692        C  0.29614352  0.95800308  0.40559956    -0.03800
C693        C  0.30521250  0.99150526  0.42055848     0.00000
C694        C  0.30625314  0.98934903  0.45001864    -0.02600
C695        C  0.28212068  0.88210963  0.46486056     0.36700
C696        C  0.31280935  0.02940728  0.40588722     0.40300
C697        C  0.28026416  0.88532367  0.40530187     0.39400
C698        C  0.31521001  0.02418548  0.46543375     0.36400
C699        C  0.32388284  0.90756702  0.49662695     0.37000
C700        C  0.27032241  0.99741884  0.55345056     0.40300
N701        N  0.27351325  0.85654130  0.39325760    -0.37800
N702        N  0.27599973  0.85239159  0.47697709    -0.39400
N703        N  0.31887430  0.05970623  0.39424331    -0.37100
N704        N  0.32234780  0.05187559  0.47783444    -0.39500
N705        N  0.26204279  0.01924388  0.48139280    -0.39300
N706        N  0.25930968  0.01564225  0.56443950    -0.36900
N707        N  0.33214842  0.88217170  0.56823872    -0.38000
N708        N  0.33457782  0.88933384  0.48482339    -0.39600
C709        C  0.25935715  0.14094551  0.69049670    -0.04600
C710        C  0.25946521  0.17185230  0.66792164     0.09600
C711        C  0.26602836  0.15816056  0.64192239    -0.01900
C712        C  0.27242874  0.11404393  0.63843018    -0.00200
C713        C  0.27213364  0.08260112  0.66087808    -0.03800
C714        C  0.26555186  0.09643995  0.68698019     0.03200
C715        C  0.25225296  0.21861708  0.67088265     0.10000
C716        C  0.26600319  0.18960217  0.61855383     0.35900
C717        C  0.26570647  0.06553054  0.71057885     0.39400
C718        C  0.26299435  0.25647205  0.67390369    -0.04200
C719        C  0.25643807  0.30089821  0.67251766     0.03000
C720        C  0.23894846  0.30800830  0.66823741    -0.03800
C721        C  0.22811157  0.26966855  0.66684297     0.00000
C722        C  0.23476046  0.22539462  0.66807450    -0.02600
C723        C  0.28093190  0.24954130  0.67773203     0.36700
C724        C  0.21002410  0.27535008  0.66421940     0.40300
C725        C  0.26794455  0.33905462  0.67396412     0.39400
C726        C  0.22362522  0.18652211  0.66572608     0.36400
C727        C  0.25304267  0.15525563  0.71745016     0.37000
C728        C  0.27894262  0.10093135  0.61133572     0.40300
N729        N  0.27715584  0.36945521  0.67505799    -0.37800
N730        N  0.29524167  0.24395228  0.68078475    -0.39400
N731        N  0.19559098  0.27965957  0.66206547    -0.37100
N732        N  0.21479579  0.15540684  0.66393105    -0.39500
N733        N  0.26596207  0.21480851  0.59999351    -0.39300
N734        N  0.28420732  0.09078836  0.58971828    -0.36900
N735        N  0.26585864  0.04089485  0.72943247    -0.38000
N736        N  0.24803504  0.16675241  0.73897487    -0.39600
C737        C  0.25331021  0.75185134  0.67609641    -0.04600
C738        C  0.25892142  0.71899434  0.65696237     0.09600
C739        C  0.27041469  0.73153579  0.63591331    -0.01900
C740        C  0.27618274  0.77666930  0.63378267    -0.00200
C741        C  0.27099994  0.80971328  0.65345043    -0.03800
C742        C  0.25940760  0.79687388  0.67456878     0.03200
C743        C  0.25214840  0.67147426  0.65805642     0.10000
C744        C  0.27629268  0.69771183  0.61634282     0.35900
C745        C  0.25400270  0.82942726  0.69526655     0.39400
C746        C  0.23832411  0.65920897  0.64109319    -0.04200
C747        C  0.23209276  0.61442933  0.64138868     0.03000
C748        C  0.23955686  0.58118855  0.65894826    -0.03800
C749        C  0.25346967  0.59365985  0.67593369     0.00000
C750        C  0.25978266  0.63852756  0.67530895    -0.02600
C751        C  0.23065657  0.69276147  0.62291343     0.36700
C752        C  0.26102205  0.56087600  0.69472325     0.40300
C753        C  0.21832787  0.60249095  0.62269203     0.39400
C754        C  0.27429734  0.65084947  0.69217330     0.36400
C755        C  0.24119093  0.73914027  0.69736711     0.37000
C756        C  0.28690735  0.78918528  0.61045591     0.40300
N757        N  0.20735433  0.59293724  0.60780497    -0.37800
N758        N  0.22458065  0.71948146  0.60835018    -0.39400
N759        N  0.26703691  0.53481006  0.70980907    -0.37100
N760        N  0.28592581  0.66075584  0.70551304    -0.39500
N761        N  0.28100654  0.67061745  0.60084198    -0.39300
N762        N  0.29537248  0.79913195  0.59174383    -0.36900
N763        N  0.24965228  0.85526533  0.71185073    -0.38000
N764        N  0.23149495  0.72887571  0.71427341    -0.39600
C765        C  0.36419185  0.95894109  0.71980186    -0.04600
C766        C  0.36201888  0.93491018  0.74506517     0.09600
C767        C  0.34666196  0.91250048  0.75036370    -0.01900
C768        C  0.33356434  0.91351882  0.73037467    -0.00200
C769        C  0.33549671  0.93839980  0.70515888    -0.03800
C770        C  0.35098279  0.96097794  0.69997875     0.03200
C771        C  0.37543256  0.93603751  0.76711585     0.10000
C772        C  0.34410733  0.88995299  0.77702212     0.35900
C773        C  0.35314506  0.98843240  0.67504037     0.39400
C774        C  0.37718425  0.97463577  0.78413810    -0.04200
C775        C  0.38963490  0.97600411  0.80517246     0.03000
C776        C  0.39995848  0.93799788  0.81016364    -0.03800
C777        C  0.39850844  0.89977555  0.79264201     0.00000
C778        C  0.38626776  0.89880807  0.77114902    -0.02600
C779        C  0.36611923  0.01302626  0.77989562     0.36700
C780        C  0.40977918  0.86176323  0.79651682     0.40300
C781        C  0.39253493  0.01771761  0.82030245     0.39400
C782        C  0.38483959  0.85964350  0.75311041     0.36400
C783        C  0.37984818  0.98313021  0.71479555     0.37000
C784        C  0.31819225  0.88830137  0.73584355     0.40300
N785        N  0.39491897  0.05173590  0.83155985    -0.37800
N786        N  0.35725432  0.04349900  0.77635285    -0.39400
N787        N  0.41892671  0.83174963  0.79952723    -0.37100
N788        N  0.38372822  0.82834178  0.73873694    -0.39500
N789        N  0.34205158  0.87239101  0.79840536    -0.39300
N790        N  0.30594869  0.86816521  0.74027197    -0.36900
N791        N  0.35493674  0.01057942  0.65526552    -0.38000
N792        N  0.39229284  0.00271718  0.71103131    -0.39600
C793        C  0.70337322  0.99803103  0.51855076    -0.04600
C794        C  0.71619087  0.01878160  0.50266942     0.09600
C795        C  0.72948730  0.04159310  0.51633999    -0.01900
C796        C  0.73001317  0.04359200  0.54581493    -0.00200
C797        C  0.71728154  0.02219399  0.56194853    -0.03800
C798        C  0.70401687  0.99908854  0.54803827     0.03200
C799        C  0.71596588  0.01542715  0.47144381     0.10000
C800        C  0.74258641  0.06333418  0.49993729     0.35900
C801        C  0.69139457  0.97448778  0.56390089     0.39400
C802        C  0.70560756  0.04425576  0.45540280    -0.04200
C803        C  0.70555045  0.04130010  0.42595459     0.03000
C804        C  0.71606075  0.00976722  0.41228868    -0.03800
C805        C  0.72632810  0.98059991  0.42852100     0.00000
C806        C  0.72614132  0.98322187  0.45796603    -0.02600
C807        C  0.69509826  0.07726572  0.46928650     0.36700
C808        C  0.73681001  0.94698859  0.41508412     0.40300
C809        C  0.69508342  0.07195443  0.40980483     0.39400
C810        C  0.73627859  0.95238280  0.47456261     0.36400
C811        C  0.68952744  0.97538603  0.50440249     0.37000
C812        C  0.74349360  0.06877355  0.55932125     0.40300
N813        N  0.68672194  0.09636897  0.39691991    -0.37800
N814        N  0.68668182  0.10351712  0.48037039    -0.39400
N815        N  0.74520043  0.92020240  0.40442645    -0.37100
N816        N  0.74429429  0.92778796  0.48791130    -0.39500
N817        N  0.75303354  0.08058588  0.48682405    -0.39300
N818        N  0.75426421  0.08886646  0.57002143    -0.36900
N819        N  0.68136797  0.95458834  0.57649042    -0.38000
N820        N  0.67844151  0.95771114  0.49299719    -0.39600
C821        C  0.75791918  0.72565997  0.69163325    -0.04600
C822        C  0.75969388  0.75736805  0.66964525     0.09600
C823        C  0.76742258  0.74391194  0.64447988    -0.01900
C824        C  0.77363426  0.69956631  0.64146686    -0.00200
C825        C  0.77174293  0.66749327  0.66334177    -0.03800
C826        C  0.76373079  0.68079425  0.68839702     0.03200
C827        C  0.75301045  0.80469429  0.67230815     0.10000
C828        C  0.76876399  0.77574694  0.62140442     0.35900
C829        C  0.76198608  0.64889714  0.71131814     0.39400
C830        C  0.76418530  0.84200238  0.67351058    -0.04200
C831        C  0.75797676  0.88669633  0.67171686     0.03000
C832        C  0.74040948  0.89460205  0.66972370    -0.03800
C833        C  0.72921570  0.85706072  0.67072336     0.00000
C834        C  0.73549963  0.81248673  0.67128558    -0.02600
C835        C  0.78218320  0.83423274  0.67564710     0.36700
C836        C  0.71112409  0.86396841  0.67141628     0.40300
C837        C  0.76982957  0.92410933  0.67029960     0.39400
C838        C  0.72390436  0.77448819  0.66968324     0.36400
C839        C  0.75022625  0.73937500  0.71771562     0.37000
C840        C  0.78167578  0.68696035  0.61542796     0.40300
N841        N  0.77933784  0.95382940  0.66902983    -0.37800
N842        N  0.79653945  0.82800028  0.67721662    -0.39400
N843        N  0.69670229  0.86946577  0.67203729    -0.37100
N844        N  0.71466446  0.74417791  0.66838388    -0.39500
N845        N  0.76983997  0.80129795  0.60311034    -0.39300
N846        N  0.78817639  0.67723484  0.59468604    -0.36900
N847        N  0.76058124  0.62345612  0.72961196    -0.38000
N848        N  0.74402523  0.75025437  0.73848857    -0.39600
C849        C  0.75885126  0.22383478  0.68262373    -0.04600
C850        C  0.75463023  0.25535191  0.66154888     0.09600
C851        C  0.74447954  0.24148267  0.63884691    -0.01900
C852        C  0.73862269  0.19641804  0.63715466    -0.00200
C853        C  0.74209908  0.16517948  0.65899402    -0.03800
C854        C  0.75234620  0.17924323  0.68171097     0.03200
C855        C  0.76156177  0.30268612  0.66238027     0.10000
C856        C  0.74014677  0.27373123  0.61706409     0.35900
C857        C  0.75585252  0.14846548  0.70464389     0.39400
C858        C  0.77558651  0.31419978  0.64583320    -0.04200
C859        C  0.78176521  0.35902094  0.64534750     0.03000
C860        C  0.77388929  0.39328002  0.66144846    -0.03800
C861        C  0.76012099  0.38111862  0.67878840     0.00000
C862        C  0.75400506  0.33605666  0.67917971    -0.02600
C863        C  0.78364420  0.27961008  0.62912281     0.36700
C864        C  0.75257013  0.41433638  0.69708560     0.40300
C865        C  0.79607723  0.36952723  0.62762660     0.39400
C866        C  0.73990773  0.32383159  0.69691317     0.36400
C867        C  0.77015109  0.23725989  0.70502926     0.37000
C868        C  0.72971640  0.18186438  0.61215180     0.40300
N869        N  0.80756318  0.37764990  0.61361181    -0.37800
N870        N  0.79002360  0.25197275  0.61579750    -0.39400
N871        N  0.74655033  0.44062920  0.71184601    -0.37100
N872        N  0.72871471  0.31390302  0.71113800    -0.39500
N873        N  0.73667768  0.29950593  0.59973757    -0.39300
N874        N  0.72276979  0.17023155  0.59208079    -0.36900
N875        N  0.75861911  0.12402457  0.72302850    -0.38000
N876        N  0.77927708  0.24802504  0.72274793    -0.39600
C877        C  0.58586338  0.07129442  0.95815451    -0.04600
C878        C  0.59680539  0.03897048  0.97008801     0.09600
C879        C  0.60659728  0.01153885  0.95233053    -0.01900
C880        C  0.60402790  0.01271629  0.92307458    -0.00200
C881        C  0.59239786  0.04356242  0.91117540    -0.03800
C882        C  0.58428008  0.07488371  0.92886020     0.03200
C883        C  0.59693863  0.03145028  0.00118698     0.10000
C884        C  0.61899537  0.98114841  0.96431562     0.35900
C885        C  0.57471079  0.11193320  0.91701875     0.39400
C886        C  0.59022784  0.99091845  0.01235563    -0.04200
C887        C  0.58927079  0.98471688  0.04150841     0.03000
C888        C  0.59340729  0.02047669  0.05978779    -0.03800
C889        C  0.60076819  0.06032024  0.04881721     0.00000
C890        C  0.60293165  0.06527295  0.01962558    -0.02600
C891        C  0.58363261  0.95618408  0.99387964     0.36700
C892        C  0.60574906  0.09663044  0.06744031     0.40300
C893        C  0.58479575  0.94071488  0.05271788     0.39400
C894        C  0.61094855  0.10559955  0.00847248     0.36400
C895        C  0.57568889  0.09979406  0.97602118     0.37000
C896        C  0.61285619  0.98074136  0.90553172     0.40300
N897        N  0.58178351  0.90500395  0.06134104    -0.37800
N898        N  0.57832109  0.92858375  0.97913024    -0.39400
N899        N  0.60978439  0.12564620  0.08224234    -0.37100
N900        N  0.61728022  0.13781717  0.99949356    -0.39500
N901        N  0.62887463  0.95692037  0.97392052    -0.39300
N902        N  0.61997063  0.95528418  0.89158791    -0.36900
N903        N  0.56737266  0.14252188  0.90815476    -0.38000
N904        N  0.56759916  0.12249639  0.99031132    -0.39600
C905        C  0.52525115  0.96579461  0.82289183    -0.04600
C906        C  0.51274625  0.99328776  0.83500903     0.09600
C907        C  0.51751988  0.03448757  0.84770250    -0.01900
C908        C  0.53461816  0.04754859  0.84868971    -0.00200
C909        C  0.54731188  0.01780431  0.83933317    -0.03800
C910        C  0.54248254  0.97711277  0.82589891     0.03200
C911        C  0.49463976  0.97820637  0.83555816     0.10000
C912        C  0.50486632  0.06300150  0.86048522     0.35900
C913        C  0.55517865  0.94584853  0.81613759     0.39400
C914        C  0.48972698  0.94127779  0.85251178    -0.04200
C915        C  0.47258077  0.92916624  0.85477306     0.03000
C916        C  0.45999441  0.95582149  0.84180122    -0.03800
C917        C  0.46499345  0.99178919  0.82391977     0.00000
C918        C  0.48225079  0.00203538  0.82028327    -0.02600
C919        C  0.50229057  0.91634362  0.86831412     0.36700
C920        C  0.45247365  0.01943705  0.80987872     0.40300
C921        C  0.46801306  0.88830721  0.86981603     0.39400
C922        C  0.48729952  0.03764047  0.80108682     0.36400
C923        C  0.52034502  0.92555481  0.80756588     0.37000
C924        C  0.53900686  0.09249236  0.85833505     0.40300
N925        N  0.46463517  0.85525292  0.88155674    -0.37800
N926        N  0.51229593  0.89639514  0.88090178    -0.39400
N927        N  0.44250134  0.04129976  0.79849710    -0.37100
N928        N  0.49134594  0.06602973  0.78578058    -0.39500
N929        N  0.49476663  0.08567777  0.87068554    -0.39300
N930        N  0.54212044  0.12896306  0.86540816    -0.36900
N931        N  0.56529096  0.92083996  0.80833572    -0.38000
N932        N  0.51638798  0.89355947  0.79525992    -0.39600
C933        C  0.62956906  0.99301548  0.78403552    -0.04600
C934        C  0.63438517  0.03290096  0.76978598     0.09600
C935        C  0.62578135  0.07368213  0.77524448    -0.01900
C936        C  0.61279189  0.07478327  0.79535664    -0.00200
C937        C  0.60792478  0.03484313  0.80943010    -0.03800
C938        C  0.61612592  0.99376323  0.80328628     0.03200
C939        C  0.64886162  0.03215456  0.74962603     0.10000
C940        C  0.63038904  0.11456615  0.76026237     0.35900
C941        C  0.61070527  0.95221584  0.81677878     0.39400
C942        C  0.64667319  0.01495786  0.72236841    -0.04200
C943        C  0.66034500  0.01400576  0.70348465     0.03000
C944        C  0.67645240  0.03056980  0.71164508    -0.03800
C945        C  0.67858461  0.04716649  0.73931273     0.00000
C946        C  0.66488497  0.04773439  0.75809988    -0.02600
C947        C  0.63031325  0.99760336  0.71390767     0.36700
C948        C  0.69477743  0.06447224  0.74867806     0.40300
C949        C  0.65782171  0.99423946  0.67604027     0.39400
C950        C  0.66730242  0.06379595  0.78648962     0.36400
C951        C  0.63881472  0.95150824  0.77944830     0.37000
C952        C  0.60456492  0.11710452  0.80195747     0.40300
N953        N  0.65576244  0.97833615  0.65419664    -0.37800
N954        N  0.61728176  0.98351506  0.70725986    -0.39400
N955        N  0.70768189  0.07813696  0.75629713    -0.37100
N956        N  0.66919353  0.07647007  0.80916277    -0.39500
N957        N  0.63403809  0.14720328  0.74827464    -0.39300
N958        N  0.59799613  0.15078677  0.80743808    -0.36900
N959        N  0.60630847  0.91895342  0.82733707    -0.38000
N960        N  0.64631906  0.91856845  0.77587027    -0.39600
loop_ 
_geom_bond_atom_site_label_1 
_geom_bond_atom_site_label_2 
_geom_bond_distance 
_geom_bond_site_symmetry_2 
_ccdc_geom_bond_type 
C1            C2   1.405       .  A
C1            C6   1.405       .  A
C1          C937   1.489       .  S
C2            C3   1.407       .  A
C2            H7   1.084       .  S
C3            C4   1.406       .  A
C3          C909   1.498       .  S
C4            C5   1.406       .  A
C4            H8   1.084       .  S
C5            C6   1.405       .  A
C5          C881   1.498       .  S
C6            H9   1.083       .  S
O10          C13   1.268       .  A
O10         Cd15   2.472       .  S
C11         C944   1.504       .  S
C11          O20   1.265       .  A
C11          O16   1.267       .  A
O12          C18   1.270       .  A
O12         Cd15   2.501   1_565  S
C13         C797   1.494       .  S
C13          O21   1.266       .  A
C14         C853   1.497       .  S
C14          O19   1.269       .  A
C14          O17   1.263       .  A
Cd15         O22   2.435   1_545  S
Cd15         O21   2.453       .  S
Cd15         O20   2.468       .  S
Cd15         O16   2.490       .  S
Cd15         O19   2.506       .  S
Cd15         O17   2.449       .  S
C18         C832   1.498       .  S
C18          O22   1.265       .  A
O23          C26   1.267       .  A
O23         Cd28   2.480       .  S
C24         C685   1.493       .  S
C24          O33   1.266       .  A
C24          O29   1.268       .  A
O25          C31   1.270       .  A
O25         Cd28   2.517       .  S
C26         C769   1.494       .  S
C26          O34   1.266       .  A
C27         C713   1.498       .  S
C27          O32   1.270       .  A
C27          O30   1.264       .  A
Cd28         O35   2.448       .  S
Cd28         O34   2.452       .  S
Cd28         O33   2.448       .  S
Cd28         O29   2.473       .  S
Cd28         O32   2.516   1_565  S
Cd28         O30   2.460   1_565  S
C31         C741   1.502       .  S
C31          O35   1.264       .  A
C36          C37   1.404       .  A
C36          C41   1.405       .  A
C36         C776   1.487       .  S
C37          C38   1.405       .  A
C37          H42   1.071       .  S
C38          C39   1.407       .  A
C38         C916   1.499       .  S
C39          C40   1.406       .  A
C39          H43   1.083       .  S
C40          C41   1.404       .  A
C40         C664   1.495       .  S
C41          H44   1.090       .  S
O45          C48   1.268       .  A
O45         Cd50   2.482       .  S
C46         C629   1.502       .  S
C46          O55   1.266       .  A
C46          O51   1.268       .  A
O47          C53   1.270       .  A
O47         Cd50   2.516       .  S
C48         C601   1.492       .  S
C48          O56   1.265       .  A
C49         C748   1.498       .  S
C49          O54   1.271       .  A
C49          O52   1.263       .  A
Cd50         O57   2.464       .  S
Cd50         O56   2.453       .  S
Cd50         O55   2.458       .  S
Cd50         O51   2.476       .  S
Cd50         O54   2.515       .  S
Cd50         O52   2.435       .  S
C53         C720   1.505       .  S
C53          O57   1.264       .  A
C58          C59   1.403       .  A
C58          C63   1.403       .  A
C58         C636   1.485       .  S
C59          C60   1.402       .  A
C59          H64   1.084       .  S
C60          C61   1.404       .  A
C60         C573   1.491       .  S
C61          C62   1.405       .  A
C61          H65   1.083       .  S
C62          C63   1.405       .  A
C62         C545   1.497       .  S
C63          H66   1.084       .  S
C67          C68   1.404       .  A
C67          C72   1.403       .  A
C67         C517   1.481       .  S
C68          C69   1.405       .  A
C68          H73   1.084       .  S
C69          C70   1.402       .  A
C69         C489   1.492       .  S
C70          C71   1.398       .  A
C70          H74   1.085       .  S
C71          C72   1.399       .  A
C71         C580   1.485       .  S
C72          H75   1.083       .  S
O76          C79   1.267       .  A
O76         Cd81   2.478       .  S
C77         C524   1.489       .  S
C77          O86   1.266       .  A
C77          O82   1.267       .  A
O78          C84   1.270       .  A
O78         Cd81   2.506       .  S
C79         C468   1.493       .  S
C79          O87   1.265       .  A
C80         C860   1.501       .  S
C80          O85   1.271       .  A
C80          O83   1.263       .  A
Cd81         O88   2.443       .  S
Cd81         O87   2.450       .  S
Cd81         O86   2.446       .  S
Cd81         O82   2.458       .  S
Cd81         O85   2.513       .  S
Cd81         O83   2.437       .  S
C84         C825   1.495       .  S
C84          O88   1.264       .  A
C89          C90   1.405       .  A
C89          C94   1.403       .  A
C89         C433   1.484       .  S
C90          C91   1.402       .  A
C90          H95   1.083       .  S
C91          C92   1.405       .  A
C91         C888   1.491       .  S
C92          C93   1.406       .  A
C92          H96   1.084       .  S
C93          C94   1.404       .  A
C93         C405   1.495       .  S
C94          H97   1.085       .  S
O98         C101   1.266       .  A
O98        Cd103   2.473       .  S
C99         C804   1.489       .  S
C99         O108   1.265       .  A
C99         O104   1.268       .  A
O100        C106   1.269       .  A
O100       Cd103   2.503   1_565  S
C101        C440   1.499       .  S
C101        O109   1.266       .  A
C102        C377   1.496       .  S
C102        O107   1.270       .  A
C102        O105   1.264       .  A
Cd103       O110   2.443   1_545  S
Cd103       O109   2.473       .  S
Cd103       O108   2.448       .  S
Cd103       O104   2.468       .  S
Cd103       O107   2.502       .  S
Cd103       O105   2.451       .  S
C106        C356   1.494       .  S
C106        O110   1.264       .  A
O111        C114   1.266       .  A
O111       Cd116   2.464       .  S
C112        C692   1.488       .  S
C112        O121   1.266       .  A
C112        O117   1.268       .  A
O113        C119   1.267       .  A
O113       Cd116   2.495   1_545  S
C114        C321   1.492       .  S
C114        O122   1.265       .  A
C115        C293   1.493       .  S
C115        O120   1.268       .  A
C115        O118   1.264       .  A
Cd116       O123   2.443   1_565  S
Cd116       O122   2.458       .  S
Cd116       O121   2.445       .  S
Cd116       O117   2.478       .  S
Cd116       O120   2.487       .  S
Cd116       O118   2.454       .  S
C119        C265   1.487       .  S
C119        O123   1.263       .  A
C124        C125   1.403   1_545  A
C124        C129   1.402       .  A
C124        C328   1.480       .  S
C125        C126   1.404       .  A
C125        H130   1.083       .  S
C126        C127   1.406       .  A
C126        C657   1.496       .  S
C127        C128   1.404   1_565  A
C127        H131   1.084       .  S
C128        C129   1.400       .  A
C128        C412   1.486       .  S
C129        H132   1.084       .  S
O133        C136   1.268       .  A
O133       Cd138   2.456       .  S
C134        C608   1.491       .  S
C134        O143   1.265       .  A
C134        O139   1.268       .  A
O135        C141   1.270       .  A
O135       Cd138   2.490       .  S
C136        C244   1.485       .  S
C136        O144   1.265       .  A
C137        C300   1.488       .  S
C137        O142   1.269       .  A
C137        O140   1.265       .  A
Cd138       O145   2.418       .  S
Cd138       O144   2.432       .  S
Cd138       O143   2.445       .  S
Cd138       O139   2.472       .  S
Cd138       O142   2.484       .  S
Cd138       O140   2.450       .  S
C141        C272   1.491       .  S
C141        O145   1.263       .  A
C146        C147   1.403       .  A
C146        C151   1.401       .  A
C146        C237   1.479       .  S
C147        C148   1.398       .  A
C147        H152   1.084       .  S
C148        C149   1.401       .  A
C148        C552   1.481       .  S
C149        C150   1.405       .  A
C149        H153   1.085       .  S
C150        C151   1.401       .  A
C150        C216   1.491       .  S
C151        H154   1.084       .  S
C155        C156   1.401       .  A
C155        C160   1.402       .  A
C155        C188   1.480       .  S
C156        C157   1.398       .  A
C156        H161   1.085       .  S
C157        C158   1.404       .  A
C157        C209   1.481       .  S
C158        C159   1.404       .  A
C158        H162   1.083       .  S
C159        C160   1.402       .  A
C159        C496   1.493       .  S
C160        H163   1.084       .  S
O164        C167   1.267       .  A
O164       Cd169   2.457       .  S
C165        C461   1.482       .  S
C165        O174   1.265       .  A
C165        O170   1.267       .  A
O166        C172   1.270       .  A
O166       Cd169   2.502       .  S
C167        C181   1.486       .  S
C167        O175   1.266       .  A
C168        C384   1.505       .  S
C168        O173   1.269       .  A
C168        O171   1.264       .  A
Cd169       O176   2.439       .  S
Cd169       O175   2.445       .  S
Cd169       O174   2.439       .  S
Cd169       O170   2.457       .  S
Cd169       O173   2.503       .  S
Cd169       O171   2.452       .  S
C172        C349   1.491       .  S
C172        O176   1.263       .  A
C177        C178   1.409       .  A
C177        C182   1.410       .  A
C177        C195   1.451       .  S
C178        C179   1.409       .  A
C178        C183   1.490       .  S
C179        C180   1.408       .  A
C179        C184   1.452       .  S
C180        C181   1.417       .  A
C180        C196   1.451       .  S
C181        C182   1.417       .  A
C182        C185   1.451       .  S
C183        C186   1.410       .  A
C183        C190   1.410       .  A
C184        N201   1.157       .  T
C185        N203   1.157       .  T
C186        C187   1.408       .  A
C186        C191   1.451       .  S
C187        C188   1.412       .  A
C187        C193   1.450       .  S
C188        C189   1.412       .  A
C189        C190   1.407       .  A
C189        C192   1.451       .  S
C190        C194   1.450       .  S
C191        N198   1.157       .  T
C192        N199   1.157       .  T
C193        N197   1.157       .  T
C194        N200   1.157       .  T
C195        N204   1.157       .  T
C196        N202   1.157       .  T
C205        C206   1.413       .  A
C205        C210   1.409       .  A
C205        C223   1.451       .  S
C206        C207   1.412       .  A
C206        C211   1.494   1_655  S
C207        C208   1.407       .  A
C207        C212   1.450   1_655  S
C208        C209   1.410       .  A
C208        C224   1.450       .  S
C209        C210   1.411       .  A
C210        C213   1.449       .  S
C211        C214   1.412       .  A
C211        C218   1.411       .  A
C212        N229   1.157       .  T
C213        N231   1.157       .  T
C214        C215   1.405       .  A
C214        C219   1.453       .  S
C215        C216   1.415       .  A
C215        C221   1.451       .  S
C216        C217   1.417       .  A
C217        C218   1.411       .  A
C217        C220   1.451       .  S
C218        C222   1.450       .  S
C219        N226   1.157       .  T
C220        N227   1.157       .  T
C221        N225   1.157       .  T
C222        N228   1.157       .  T
C223        N232   1.157   1_655  T
C224        N230   1.157       .  T
C233        C234   1.410       .  A
C233        C238   1.408       .  A
C233        C251   1.451       .  S
C234        C235   1.410       .  A
C234        C239   1.489       .  S
C235        C236   1.406       .  A
C235        C240   1.451       .  S
C236        C237   1.411       .  A
C236        C252   1.451       .  S
C237        C238   1.413       .  A
C238        C241   1.451       .  S
C239        C242   1.408       .  A
C239        C246   1.410       .  A
C240        N257   1.157       .  T
C241        N259   1.157       .  T
C242        C243   1.408       .  A
C242        C247   1.451       .  S
C243        C244   1.417       .  A
C243        C249   1.452       .  S
C244        C245   1.416       .  A
C245        C246   1.408       .  A
C245        C248   1.451       .  S
C246        C250   1.452       .  S
C247        N254   1.157       .  T
C248        N255   1.157       .  T
C249        N253   1.157       .  T
C250        N256   1.157       .  T
C251        N260   1.157       .  T
C252        N258   1.157       .  T
C261        C262   1.410       .  A
C261        C266   1.409       .  A
C261        C279   1.451       .  S
C262        C263   1.410       .  A
C262        C267   1.495       .  S
C263        C264   1.412       .  A
C263        C268   1.450       .  S
C264        C265   1.416       .  A
C264        C280   1.450       .  S
C265        C266   1.415       .  A
C266        C269   1.451       .  S
C267        C270   1.411       .  A
C267        C274   1.407       .  A
C268        N285   1.157       .  T
C269        N287   1.157       .  T
C270        C271   1.412       .  A
C270        C275   1.450       .  S
C271        C272   1.416       .  A
C271        C277   1.451       .  S
C272        C273   1.419       .  A
C273        C274   1.409       .  A
C273        C276   1.452       .  S
C274        C278   1.451       .  S
C275        N282   1.157       .  T
C276        N283   1.157       .  T
C277        N281   1.157       .  T
C278        N284   1.157       .  T
C279        N288   1.157       .  T
C280        N286   1.157       .  T
C289        C290   1.411       .  A
C289        C294   1.412       .  A
C289        C307   1.451       .  S
C290        C291   1.410       .  A
C290        C295   1.500       .  S
C291        C292   1.412       .  A
C291        C296   1.451       .  S
C292        C293   1.418       .  A
C292        C308   1.451       .  S
C293        C294   1.417       .  A
C294        C297   1.451       .  S
C295        C298   1.411       .  A
C295        C302   1.412       .  A
C296        N313   1.157       .  T
C297        N315   1.157       .  T
C298        C299   1.412       .  A
C298        C303   1.451       .  S
C299        C300   1.416       .  A
C299        C305   1.451       .  S
C300        C301   1.414       .  A
C301        C302   1.412       .  A
C301        C304   1.451       .  S
C302        C306   1.450       .  S
C303        N310   1.157       .  T
C304        N311   1.157       .  T
C305        N309   1.157       .  T
C306        N312   1.157       .  T
C307        N316   1.157       .  T
C308        N314   1.157       .  T
C317        C318   1.409   1_545  A
C317        C322   1.411       .  A
C317        C335   1.451       .  S
C318        C319   1.410       .  A
C318        C323   1.495   1_565  S
C319        C320   1.410       .  A
C319        C324   1.452       .  S
C320        C321   1.418       .  A
C320        C336   1.451       .  S
C321        C322   1.418   1_565  A
C322        C325   1.451       .  S
C323        C326   1.412   1_545  A
C323        C330   1.412       .  A
C324        N341   1.157       .  T
C325        N343   1.157       .  T
C326        C327   1.407       .  A
C326        C331   1.451       .  S
C327        C328   1.410   1_565  A
C327        C333   1.451       .  S
C328        C329   1.411       .  A
C329        C330   1.411       .  A
C329        C332   1.450       .  S
C330        C334   1.450       .  S
C331        N338   1.157       .  T
C332        N339   1.157       .  T
C333        N337   1.157       .  T
C334        N340   1.157       .  T
C335        N344   1.157       .  T
C336        N342   1.157       .  T
C345        C346   1.413       .  A
C345        C350   1.414       .  A
C345        C363   1.450       .  S
C346        C347   1.412       .  A
C346        C351   1.503       .  S
C347        C348   1.411       .  A
C347        C352   1.452       .  S
C348        C349   1.416       .  A
C348        C364   1.452       .  S
C349        C350   1.415       .  A
C350        C353   1.451       .  S
C351        C354   1.411       .  A
C351        C358   1.413       .  A
C352        N369   1.157       .  T
C353        N371   1.157       .  T
C354        C355   1.412       .  A
C354        C359   1.451       .  S
C355        C356   1.418       .  A
C355        C361   1.452       .  S
C356        C357   1.416       .  A
C357        C358   1.414       .  A
C357        C360   1.451       .  S
C358        C362   1.451       .  S
C359        N366   1.157       .  T
C360        N367   1.157       .  T
C361        N365   1.157       .  T
C362        N368   1.157       .  T
C363        N372   1.157       .  T
C364        N370   1.158       .  T
C373        C374   1.410       .  A
C373        C378   1.412       .  A
C373        C391   1.452       .  S
C374        C375   1.411       .  A
C374        C379   1.501       .  S
C375        C376   1.415       .  A
C375        C380   1.450       .  S
C376        C377   1.416       .  A
C376        C392   1.450       .  S
C377        C378   1.419       .  A
C378        C381   1.452       .  S
C379        C382   1.407       .  A
C379        C386   1.410       .  A
C380        N397   1.157       .  T
C381        N399   1.157       .  T
C382        C383   1.412       .  A
C382        C387   1.452       .  S
C383        C384   1.424       .  A
C383        C389   1.452       .  S
C384        C385   1.421       .  A
C385        C386   1.416       .  A
C385        C388   1.450       .  S
C386        C390   1.451       .  S
C387        N394   1.157       .  T
C388        N395   1.157       .  T
C389        N393   1.158       .  T
C390        N396   1.157       .  T
C391        N400   1.157       .  T
C392        N398   1.157       .  T
C401        C402   1.412   1_565  A
C401        C406   1.408       .  A
C401        C419   1.452       .  S
C402        C403   1.412       .  A
C402        C407   1.500       .  S
C403        C404   1.414       .  A
C403        C408   1.450       .  S
C404        C405   1.417       .  A
C404        C420   1.450       .  S
C405        C406   1.414   1_545  A
C406        C409   1.448       .  S
C407        C410   1.413   1_545  A
C407        C414   1.413       .  A
C408        N425   1.157       .  T
C409        N427   1.156       .  T
C410        C411   1.411       .  A
C410        C415   1.450       .  S
C411        C412   1.412   1_565  A
C411        C417   1.450       .  S
C412        C413   1.411       .  A
C413        C414   1.409       .  A
C413        C416   1.450       .  S
C414        C418   1.451       .  S
C415        N422   1.157       .  T
C416        N423   1.157       .  T
C417        N421   1.157       .  T
C418        N424   1.157       .  T
C419        N428   1.157       .  T
C420        N426   1.157       .  T
C429        C430   1.413       .  A
C429        C434   1.411       .  A
C429        C447   1.450       .  S
C430        C431   1.413   1_545  A
C430        C435   1.499       .  S
C431        C432   1.411       .  A
C431        C436   1.450       .  S
C432        C433   1.411   1_565  A
C432        C448   1.450       .  S
C433        C434   1.411       .  A
C434        C437   1.451       .  S
C435        C438   1.409       .  A
C435        C442   1.410   1_545  A
C436        N453   1.157       .  T
C437        N455   1.157       .  T
C438        C439   1.413       .  A
C438        C443   1.451       .  S
C439        C440   1.420       .  A
C439        C445   1.451       .  S
C440        C441   1.420   1_545  A
C441        C442   1.412       .  A
C441        C444   1.451       .  S
C442        C446   1.452       .  S
C443        N450   1.157       .  T
C444        N451   1.157       .  T
C445        N449   1.157       .  T
C446        N452   1.157       .  T
C447        N456   1.157       .  T
C448        N454   1.157       .  T
C457        C458   1.409       .  A
C457        C462   1.409       .  A
C457        C475   1.450       .  S
C458        C459   1.411       .  A
C458        C463   1.494       .  S
C459        C460   1.410       .  A
C459        C464   1.451       .  S
C460        C461   1.414       .  A
C460        C476   1.452       .  S
C461        C462   1.414       .  A
C462        C465   1.451       .  S
C463        C466   1.409       .  A
C463        C470   1.408       .  A
C464        N481   1.157       .  T
C465        N483   1.157       .  T
C466        C467   1.410       .  A
C466        C471   1.452       .  S
C467        C468   1.419       .  A
C467        C473   1.451       .  S
C468        C469   1.419       .  A
C469        C470   1.412       .  A
C469        C472   1.450       .  S
C470        C474   1.451       .  S
C471        N478   1.157       .  T
C472        N479   1.157       .  T
C473        N477   1.157       .  T
C474        N480   1.157       .  T
C475        N484   1.157       .  T
C476        N482   1.158       .  T
C485        C486   1.412       .  A
C485        C490   1.411       .  A
C485        C503   1.451       .  S
C486        C487   1.412       .  A
C486        C491   1.497   1_556  S
C487        C488   1.406       .  A
C487        C492   1.452       .  S
C488        C489   1.415       .  A
C488        C504   1.452       .  S
C489        C490   1.417       .  A
C490        C493   1.451       .  S
C491        C494   1.411       .  A
C491        C498   1.412       .  A
C492        N509   1.157       .  T
C493        N511   1.157       .  T
C494        C495   1.409       .  A
C494        C499   1.451       .  S
C495        C496   1.416       .  A
C495        C501   1.451       .  S
C496        C497   1.416       .  A
C497        C498   1.410       .  A
C497        C500   1.450       .  S
C498        C502   1.452       .  S
C499        N506   1.157       .  T
C500        N507   1.157       .  T
C501        N505   1.157       .  T
C502        N508   1.157   1_554  T
C503        N512   1.157       .  T
C504        N510   1.157       .  T
C513        C514   1.413       .  A
C513        C518   1.409       .  A
C513        C531   1.451       .  S
C514        C515   1.410       .  A
C514        C519   1.494       .  S
C515        C516   1.409       .  A
C515        C520   1.450       .  S
C516        C517   1.413       .  A
C516        C532   1.451       .  S
C517        C518   1.410       .  A
C518        C521   1.450       .  S
C519        C522   1.410       .  A
C519        C526   1.409       .  A
C520        N537   1.157       .  T
C521        N539   1.157       .  T
C522        C523   1.411       .  A
C522        C527   1.451       .  S
C523        C524   1.418       .  A
C523        C529   1.452       .  S
C524        C525   1.417       .  A
C525        C526   1.409       .  A
C525        C528   1.451       .  S
C526        C530   1.452       .  S
C527        N534   1.157       .  T
C528        N535   1.157       .  T
C529        N533   1.158       .  T
C530        N536   1.157       .  T
C531        N540   1.157       .  T
C532        N538   1.157       .  T
C541        C542   1.412       .  A
C541        C546   1.410       .  A
C541        C559   1.452       .  S
C542        C543   1.411       .  A
C542        C547   1.499       .  S
C543        C544   1.411       .  A
C543        C548   1.451       .  S
C544        C545   1.418       .  A
C544        C560   1.451       .  S
C545        C546   1.417       .  A
C546        C549   1.451       .  S
C547        C550   1.413   1_556  A
C547        C554   1.414   1_556  A
C548        N565   1.157       .  T
C549        N567   1.157       .  T
C550        C551   1.406       .  A
C550        C555   1.451   1_554  S
C551        C552   1.409       .  A
C551        C557   1.451       .  S
C552        C553   1.410       .  A
C553        C554   1.412       .  A
C553        C556   1.450       .  S
C554        C558   1.450   1_554  S
C555        N562   1.157       .  T
C556        N563   1.157       .  T
C557        N561   1.157       .  T
C558        N564   1.157       .  T
C559        N568   1.157       .  T
C560        N566   1.157       .  T
C569        C570   1.412       .  A
C569        C574   1.410       .  A
C569        C587   1.451       .  S
C570        C571   1.411       .  A
C570        C575   1.497   1_455  S
C571        C572   1.410       .  A
C571        C576   1.451       .  S
C572        C573   1.415       .  A
C572        C588   1.450       .  S
C573        C574   1.414       .  A
C574        C577   1.451       .  S
C575        C578   1.414       .  A
C575        C582   1.412       .  A
C576        N593   1.157       .  T
C577        N595   1.157       .  T
C578        C579   1.406       .  A
C578        C583   1.452       .  S
C579        C580   1.412       .  A
C579        C585   1.452       .  S
C580        C581   1.414       .  A
C581        C582   1.412       .  A
C581        C584   1.451       .  S
C582        C586   1.450       .  S
C583        N590   1.157   1_655  T
C584        N591   1.157       .  T
C585        N589   1.157       .  T
C586        N592   1.157       .  T
C587        N596   1.157       .  T
C588        N594   1.157       .  T
C597        C598   1.410       .  A
C597        C602   1.412       .  A
C597        C615   1.451       .  S
C598        C599   1.410       .  A
C598        C603   1.498       .  S
C599        C600   1.412       .  A
C599        C604   1.451       .  S
C600        C601   1.416       .  A
C600        C616   1.450       .  S
C601        C602   1.418       .  A
C602        C605   1.452       .  S
C603        C606   1.410       .  A
C603        C610   1.410       .  A
C604        N621   1.157       .  T
C605        N623   1.158       .  T
C606        C607   1.411       .  A
C606        C611   1.451       .  S
C607        C608   1.418       .  A
C607        C613   1.452       .  S
C608        C609   1.417       .  A
C609        C610   1.412       .  A
C609        C612   1.451       .  S
C610        C614   1.450       .  S
C611        N618   1.157       .  T
C612        N619   1.157       .  T
C613        N617   1.158       .  T
C614        N620   1.157       .  T
C615        N624   1.157       .  T
C616        N622   1.157       .  T
C625        C626   1.408       .  A
C625        C630   1.411       .  A
C625        C643   1.452       .  S
C626        C627   1.408       .  A
C626        C631   1.497       .  S
C627        C628   1.414       .  A
C627        C632   1.451       .  S
C628        C629   1.423       .  A
C628        C644   1.451       .  S
C629        C630   1.422       .  A
C630        C633   1.451       .  S
C631        C634   1.412       .  A
C631        C638   1.411       .  A
C632        N649   1.157       .  T
C633        N651   1.157       .  T
C634        C635   1.411       .  A
C634        C639   1.450       .  S
C635        C636   1.412       .  A
C635        C641   1.451       .  S
C636        C637   1.413       .  A
C637        C638   1.410       .  A
C637        C640   1.451       .  S
C638        C642   1.450       .  S
C639        N646   1.157       .  T
C640        N647   1.157       .  T
C641        N645   1.157       .  T
C642        N648   1.157       .  T
C643        N652   1.157       .  T
C644        N650   1.158       .  T
C653        C654   1.413       .  A
C653        C658   1.414       .  A
C653        C671   1.450       .  S
C654        C655   1.414   1_565  A
C654        C659   1.503   1_554  S
C655        C656   1.408       .  A
C655        C660   1.452   1_554  S
C656        C657   1.414   1_545  A
C656        C672   1.450       .  S
C657        C658   1.417       .  A
C658        C661   1.451       .  S
C659        C662   1.413       .  A
C659        C666   1.413       .  A
C660        N677   1.157       .  T
C661        N679   1.157       .  T
C662        C663   1.412       .  A
C662        C667   1.451   1_565  S
C663        C664   1.414       .  A
C663        C669   1.447   1_565  S
C664        C665   1.414       .  A
C665        C666   1.411       .  A
C665        C668   1.449       .  S
C666        C670   1.451       .  S
C667        N674   1.157       .  T
C668        N675   1.157       .  T
C669        N673   1.156       .  T
C670        N676   1.157       .  T
C671        N680   1.157       .  T
C672        N678   1.157       .  T
C681        C682   1.409       .  A
C681        C686   1.412       .  A
C681        C699   1.451       .  S
C682        C683   1.409       .  A
C682        C687   1.496       .  S
C683        C684   1.410       .  A
C683        C688   1.452       .  S
C684        C685   1.419       .  A
C684        C700   1.451       .  S
C685        C686   1.419       .  A
C686        C689   1.451       .  S
C687        C690   1.409       .  A
C687        C694   1.410       .  A
C688        N705   1.157   1_565  T
C689        N707   1.157       .  T
C690        C691   1.410       .  A
C690        C695   1.451       .  S
C691        C692   1.416       .  A
C691        C697   1.452       .  S
C692        C693   1.416       .  A
C693        C694   1.412       .  A
C693        C696   1.451   1_565  S
C694        C698   1.451   1_565  S
C695        N702   1.157       .  T
C696        N703   1.157       .  T
C697        N701   1.157       .  T
C698        N704   1.157       .  T
C699        N708   1.157       .  T
C700        N706   1.157   1_565  T
C709        C710   1.412       .  A
C709        C714   1.417       .  A
C709        C727   1.450       .  S
C710        C711   1.411       .  A
C710        C715   1.506       .  S
C711        C712   1.412       .  A
C711        C716   1.451       .  S
C712        C713   1.418       .  A
C712        C728   1.451       .  S
C713        C714   1.417       .  A
C714        C717   1.450       .  S
C715        C718   1.412       .  A
C715        C722   1.410       .  A
C716        N733   1.157       .  T
C717        N735   1.157       .  T
C718        C719   1.416       .  A
C718        C723   1.450       .  S
C719        C720   1.419       .  A
C719        C725   1.450       .  S
C720        C721   1.422       .  A
C721        C722   1.414       .  A
C721        C724   1.451       .  S
C722        C726   1.451       .  S
C723        N730   1.157       .  T
C724        N731   1.157       .  T
C725        N729   1.157       .  T
C726        N732   1.157       .  T
C727        N736   1.157       .  T
C728        N734   1.157       .  T
C737        C738   1.411       .  A
C737        C742   1.416       .  A
C737        C755   1.450       .  S
C738        C739   1.409       .  A
C738        C743   1.503       .  S
C739        C740   1.412       .  A
C739        C744   1.451       .  S
C740        C741   1.421       .  A
C740        C756   1.452       .  S
C741        C742   1.419       .  A
C742        C745   1.450       .  S
C743        C746   1.409       .  A
C743        C750   1.412       .  A
C744        N761   1.157       .  T
C745        N763   1.157       .  T
C746        C747   1.411       .  A
C746        C751   1.451       .  S
C747        C748   1.421       .  A
C747        C753   1.452       .  S
C748        C749   1.417       .  A
C749        C750   1.416       .  A
C749        C752   1.450       .  S
C750        C754   1.450       .  S
C751        N758   1.157       .  T
C752        N759   1.157       .  T
C753        N757   1.158       .  T
C754        N760   1.157       .  T
C755        N764   1.157       .  T
C756        N762   1.158       .  T
C765        C766   1.410       .  A
C765        C770   1.412       .  A
C765        C783   1.452       .  S
C766        C767   1.408       .  A
C766        C771   1.496       .  S
C767        C768   1.410       .  A
C767        C772   1.451       .  S
C768        C769   1.419       .  A
C768        C784   1.451       .  S
C769        C770   1.419       .  A
C770        C773   1.451       .  S
C771        C774   1.410       .  A
C771        C778   1.412       .  A
C772        N789   1.157       .  T
C773        N791   1.157   1_565  T
C774        C775   1.408       .  A
C774        C779   1.451   1_565  S
C775        C776   1.413       .  A
C775        C781   1.449   1_565  S
C776        C777   1.413       .  A
C777        C778   1.412       .  A
C777        C780   1.450       .  S
C778        C782   1.450       .  S
C779        N786   1.157       .  T
C780        N787   1.157       .  T
C781        N785   1.157       .  T
C782        N788   1.157       .  T
C783        N792   1.157   1_565  T
C784        N790   1.157       .  T
C793        C794   1.409   1_565  A
C793        C798   1.411       .  A
C793        C811   1.451       .  S
C794        C795   1.410       .  A
C794        C799   1.497       .  S
C795        C796   1.411       .  A
C795        C800   1.452       .  S
C796        C797   1.419       .  A
C796        C812   1.452       .  S
C797        C798   1.417   1_545  A
C798        C801   1.451       .  S
C799        C802   1.410       .  A
C799        C806   1.410   1_545  A
C800        N817   1.157       .  T
C801        N819   1.157       .  T
C802        C803   1.411       .  A
C802        C807   1.451       .  S
C803        C804   1.417       .  A
C803        C809   1.451       .  S
C804        C805   1.417   1_545  A
C805        C806   1.411       .  A
C805        C808   1.452       .  S
C806        C810   1.451       .  S
C807        N814   1.157       .  T
C808        N815   1.158       .  T
C809        N813   1.157       .  T
C810        N816   1.157       .  T
C811        N820   1.157       .  T
C812        N818   1.158       .  T
C821        C822   1.414       .  A
C821        C826   1.415       .  A
C821        C839   1.450       .  S
C822        C823   1.412       .  A
C822        C827   1.504       .  S
C823        C824   1.411       .  A
C823        C828   1.452       .  S
C824        C825   1.418       .  A
C824        C840   1.452       .  S
C825        C826   1.416       .  A
C826        C829   1.450       .  S
C827        C830   1.414       .  A
C827        C834   1.411       .  A
C828        N845   1.157       .  T
C829        N847   1.157       .  T
C830        C831   1.415       .  A
C830        C835   1.451       .  S
C831        C832   1.418       .  A
C831        C837   1.451       .  S
C832        C833   1.420       .  A
C833        C834   1.411       .  A
C833        C836   1.452       .  S
C834        C838   1.451       .  S
C835        N842   1.157       .  T
C836        N843   1.157       .  T
C837        N841   1.157       .  T
C838        N844   1.157       .  T
C839        N848   1.157       .  T
C840        N846   1.157       .  T
C849        C850   1.411       .  A
C849        C854   1.415       .  A
C849        C867   1.450       .  S
C850        C851   1.410       .  A
C850        C855   1.502       .  S
C851        C852   1.412       .  A
C851        C856   1.451       .  S
C852        C853   1.419       .  A
C852        C868   1.452       .  S
C853        C854   1.417       .  A
C854        C857   1.450       .  S
C855        C858   1.408       .  A
C855        C862   1.411       .  A
C856        N873   1.157       .  T
C857        N875   1.157       .  T
C858        C859   1.411       .  A
C858        C863   1.452       .  S
C859        C860   1.422       .  A
C859        C865   1.452       .  S
C860        C861   1.419       .  A
C861        C862   1.416       .  A
C861        C864   1.450       .  S
C862        C866   1.450       .  S
C863        N870   1.157       .  T
C864        N871   1.157       .  T
C865        N869   1.158       .  T
C866        N872   1.157       .  T
C867        N876   1.157       .  T
C868        N874   1.158       .  T
C877        C878   1.412       .  A
C877        C882   1.410       .  A
C877        C895   1.452       .  S
C878        C879   1.413       .  A
C878        C883   1.503   1_556  S
C879        C880   1.413       .  A
C879        C884   1.451   1_545  S
C880        C881   1.417       .  A
C880        C896   1.450   1_545  S
C881        C882   1.415       .  A
C882        C885   1.448       .  S
C883        C886   1.413   1_545  A
C883        C890   1.415       .  A
C884        N901   1.157       .  T
C885        N903   1.156       .  T
C886        C887   1.408       .  A
C886        C891   1.451   1_554  S
C887        C888   1.411   1_565  A
C887        C893   1.449       .  S
C888        C889   1.413       .  A
C889        C890   1.414       .  A
C889        C892   1.450       .  S
C890        C894   1.450       .  S
C891        N898   1.157       .  T
C892        N899   1.157       .  T
C893        N897   1.157       .  T
C894        N900   1.157   1_554  T
C895        N904   1.157       .  T
C896        N902   1.157       .  T
C905        C906   1.413       .  A
C905        C910   1.414       .  A
C905        C923   1.450       .  S
C906        C907   1.412   1_565  A
C906        C911   1.503       .  S
C907        C908   1.410       .  A
C907        C912   1.452       .  S
C908        C909   1.415       .  A
C908        C924   1.449       .  S
C909        C910   1.416   1_545  A
C910        C913   1.450       .  S
C911        C914   1.412       .  A
C911        C918   1.412   1_565  A
C912        N929   1.157       .  T
C913        N931   1.157       .  T
C914        C915   1.410       .  A
C914        C919   1.451       .  S
C915        C916   1.415       .  A
C915        C921   1.450       .  S
C916        C917   1.419       .  A
C917        C918   1.413   1_565  A
C917        C920   1.451   1_565  S
C918        C922   1.451       .  S
C919        N926   1.157       .  T
C920        N927   1.157       .  T
C921        N925   1.157       .  T
C922        N928   1.157       .  T
C923        N932   1.157       .  T
C924        N930   1.156       .  T
C933        C934   1.412   1_565  A
C933        C938   1.412       .  A
C933        C951   1.450       .  S
C934        C935   1.414       .  A
C934        C939   1.503       .  S
C935        C936   1.413       .  A
C935        C940   1.450       .  S
C936        C937   1.411       .  A
C936        C952   1.450       .  S
C937        C938   1.413   1_545  A
C938        C941   1.450       .  S
C939        C942   1.410       .  A
C939        C946   1.409       .  A
C940        N957   1.157       .  T
C941        N959   1.157       .  T
C942        C943   1.415       .  A
C942        C947   1.451   1_545  S
C943        C944   1.421       .  A
C943        C949   1.451   1_545  S
C944        C945   1.422       .  A
C945        C946   1.413       .  A
C945        C948   1.451       .  S
C946        C950   1.451       .  S
C947        N954   1.157       .  T
C948        N955   1.158       .  T
C949        N953   1.158       .  T
C950        N956   1.157       .  T
C951        N960   1.157       .  T
C952        N958   1.157       .  T
