geometry optimzed in LAMMPS
_audit_creation_date              2020-11-30 
_audit_creation_method            'lammps2cif' 
_symmetry_space_group_name_H-M    'P1' 
_symmetry_Int_Tables_number       1 
_symmetry_cell_setting            triclinic 
loop_ 
_symmetry_equiv_pos_as_xyz 
  x,y,z 
_cell_length_a                    37.34133792369673 
_cell_length_b                    36.90032745731577 
_cell_length_c                    37.7468067448664 
_cell_angle_alpha                 88.02154781717086 
_cell_angle_beta                  88.60655146354912 
_cell_angle_gamma                 89.44328050042982 
loop_ 
_atom_site_label 
_atom_site_type_symbol 
_atom_site_fract_x 
_atom_site_fract_y 
_atom_site_fract_z 
_atom_site_charge 
O1          O  0.04872673  0.05004353  0.42429772    -0.87260
C2          C  0.47798383  0.05321260  0.09054415     1.12780
O3          O  0.99093405  0.02096941  0.46006250    -1.35070
O4          O  0.05794135  0.06523852  0.08318124    -0.88750
O5          O  0.01981173  0.52043136  0.38300960    -0.89410
O6          O  0.04429459  0.45065573  0.44255183    -0.78240
O7          O  0.04115131  0.04951578  0.50054003    -1.00320
C8          C  0.05740517  0.44068364  0.04299970     1.22820
O9          O  0.47699965  0.46120495  0.99929170    -1.35220
Mn10       Mn  0.45741160  0.01389815  0.00425727     1.82060
O11         O  0.05979239  0.45670232  0.01394287    -0.77310
O12         O  0.05738590  0.00670881  0.08726776    -0.86710
C13         C  0.42966795  0.98327954  0.07458065     1.13910
C14         C  0.05929410  0.03611053  0.10245697     1.08630
O15         O  0.41005935  0.00922375  0.47619199    -0.78250
O16         O  0.00640250  0.01908056  0.03285740    -1.31940
O17         O  0.43440772  0.47661458  0.43621618    -0.97460
C18         C  0.48413754  0.37570183  0.01391523     1.07340
Mn19       Mn  0.00715019  0.98679679  0.08385948     1.48570
O20         O  0.46337748  0.37625854  0.48797744    -0.86660
Mn21       Mn  0.47404084  0.50035420  0.41185717     1.49560
O22         O  0.48551612  0.09172226  0.42076782    -0.90540
C23         C  0.07212388  0.04472803  0.49331819     1.20540
C24         C  0.45488348  0.08379236  0.40999920     1.12590
Mn25       Mn  0.02706913  0.48697257  0.48656624     1.80970
O26         O  0.45832897  0.46639262  0.07936374    -0.95690
Mn27       Mn  0.01477016  0.06983048  0.46101430     1.49260
C28         C  0.04666502  0.03763687  0.39394230     1.09110
Mn29       Mn  0.47820448  0.43116971  0.04662152     1.49930
C30         C  0.39708320  0.42215550  0.01363528     1.12020
O31         O  0.49230350  0.44838110  0.42334558    -1.01490
O32         O  0.98277987  0.02843880  0.11310197    -0.91150
C33         C  0.02265958  0.43704977  0.42086804     1.23300
O34         O  0.02860374  0.44286450  0.06148137    -1.01880
O35         O  0.98624452  0.04493185  0.05925463    -0.89280
O36         O  0.42096585  0.41954066  0.03772970    -0.88900
O37         O  0.44581994  0.05111952  0.40393283    -0.88910
Mn38       Mn  0.02297435  0.07768685  0.03819132     1.47860
O39         O  0.42575024  0.00399176  0.04787300    -0.77380
C40         C  0.40764954  0.49205230  0.44785332     1.16350
O41         O  0.07763805  0.01535234  0.47860306    -0.76110
O42         O  0.43920233  0.06639884  0.50709252    -0.75730
Mn43       Mn  0.45333146  0.43070405  0.45803566     1.51060
O44         O  0.50468087  0.40079424  0.01120672    -0.88080
O45         O  0.98924262  0.09384142  0.50077476    -0.95610
O46         O  0.40592554  0.42578936  0.48153974    -0.90620
C47         C  0.45698584  0.09493022  0.50792184     1.14140
O48         O  0.03314243  0.19437086  0.32806778    -0.87260
C49         C  0.45794741  0.18946525  0.14852721     1.12780
O50         O  0.48493829  0.24167361  0.28571612    -1.35070
O51         O  0.03477679  0.18207136  0.16900301    -0.88750
O52         O  0.02673659  0.25076315  0.34933193    -0.89410
O53         O  0.05037798  0.30215986  0.29220540    -0.78240
O54         O  0.03123391  0.18113945  0.25127400    -1.00320
C55         C  0.04561348  0.31450930  0.19722004     1.22820
O56         O  0.47497715  0.29842473  0.24096917    -1.35220
Mn57       Mn  0.44716174  0.25332900  0.24670339     1.82060
O58         O  0.05810708  0.28982113  0.21647377    -0.77310
O59         O  0.04696344  0.24041761  0.16506337    -0.86710
C60         C  0.41981601  0.27322557  0.17547461     1.13910
C61         C  0.05175747  0.20904076  0.15428344     1.08630
O62         O  0.40612792  0.27290130  0.27916817    -0.78250
O63         O  0.99163282  0.23656606  0.21540839    -1.31940
O64         O  0.44170457  0.30559538  0.30723310    -0.97460
C65         C  0.97678171  0.38635223  0.17757693     1.07340
Mn66       Mn  0.99712974  0.26225442  0.16471427     1.48570
O67         O  0.47399455  0.37880320  0.21361844    -0.86660
Mn68       Mn  0.47887786  0.27537118  0.32917173     1.49560
O69         O  0.45447196  0.18251429  0.32993747    -0.90540
C70         C  0.06191947  0.19387046  0.24887011     1.20540
C71         C  0.43868289  0.20270087  0.35207721     1.12590
Mn72       Mn  0.02302645  0.26605129  0.25213188     1.80970
O73         O  0.44967900  0.28621813  0.16704175    -0.95690
Mn74       Mn  0.99445884  0.18435345  0.29160030     1.49260
C75         C  0.04359867  0.22040659  0.34624054     1.09110
Mn76       Mn  0.46894475  0.32480987  0.19584253     1.49930
C77         C  0.39916764  0.35390268  0.22845325     1.12020
O78         O  0.49881330  0.31784766  0.30339376    -1.01490
O79         O  0.97562860  0.21771250  0.13867382    -0.91150
C80         C  0.02957852  0.32395270  0.30898507     1.23300
O81         O  0.01687308  0.30887032  0.18234665    -1.01880
O82         O  0.95314722  0.18102612  0.18064357    -0.89280
O83         O  0.41531364  0.34184808  0.20184611    -0.88880
O84         O  0.44645864  0.23595802  0.35615686    -0.88910
Mn85       Mn  0.99554284  0.17971260  0.21381846     1.47860
O86         O  0.41365868  0.26192818  0.20649282    -0.77380
C87         C  0.41221393  0.29153470  0.30549379     1.16350
O88         O  0.06594076  0.22722015  0.25535226    -0.76110
O89         O  0.41783347  0.20853542  0.25301766    -0.75730
Mn90       Mn  0.46365449  0.34139249  0.26877096     1.51060
O91         O  0.47178024  0.36007862  0.16019526    -0.88080
O92         O  0.46019159  0.16974040  0.25475449    -0.95610
O93         O  0.41267482  0.35303079  0.25821922    -0.90620
C94         C  0.42722922  0.17641309  0.25473406     1.14140
O95         O  0.28693102  0.05642460  0.34837772    -0.87260
C96         C  0.30095521  0.98989175  0.16371498     1.12780
O97         O  0.23793124  0.01455652  0.30359902    -1.35070
O98         O  0.30971274  0.06256444  0.18744357    -0.88750
O99         O  0.22796941  0.06347595  0.35970309    -0.89410
O100        O  0.18733140  0.08535997  0.30528464    -0.78240
O101        O  0.30404781  0.05278758  0.27158026    -1.00320
C102        C  0.17987736  0.08983482  0.21437876     1.22820
O103        O  0.17928401  0.01329986  0.25941300    -1.35220
Mn104      Mn  0.22340493  0.97866429  0.26495015     1.82050
O105        O  0.20474947  0.09611822  0.23425910    -0.77310
O106        O  0.25426332  0.08162666  0.17755856    -0.86710
C107        C  0.20646270  0.45705708  0.19397812     1.13910
C108        C  0.28708778  0.08210459  0.16967829     1.08630
O109        O  0.20425639  0.43502146  0.30049449    -0.78250
O110        O  0.24747680  0.02253624  0.23196542    -1.31940
O111        O  0.17663906  0.47021448  0.33425853    -0.97460
C112        C  0.08933848  0.03146484  0.23870830     1.07340
Mn113      Mn  0.22790869  0.03368415  0.18061320     1.48570
O114        O  0.09417138  0.01691221  0.26983952    -0.86660
Mn115      Mn  0.20474648  0.01311053  0.34936623     1.49560
O116        O  0.28389207  0.97367341  0.34409882    -0.90540
C117        C  0.29802629  0.08496536  0.27221509     1.20540
C118        C  0.27552117  0.97910260  0.37577071     1.12590
Mn119      Mn  0.22059481  0.05591431  0.26875285     1.80970
O120        O  0.19935483  0.98927978  0.18625822    -0.95690
Mn121      Mn  0.29359851  0.01660657  0.31001963     1.49260
C122        C  0.25987590  0.07544357  0.35803630     1.09110
Mn123      Mn  0.15810799  0.01442697  0.20710252     1.49930
C124        C  0.12169536  0.44225197  0.23830537     1.12020
O125        O  0.16608455  0.03464453  0.32187018    -1.01490
O126        O  0.27338808  0.00793022  0.15359433    -0.91150
C127        C  0.16423398  0.06733510  0.32335967     1.23300
O128        O  0.18217347  0.06088110  0.19722602    -1.01880
O129        O  0.30397012  0.98109536  0.19568308    -0.89280
O130        O  0.13138751  0.46519995  0.21418730    -0.88880
O131        O  0.24404709  0.48972998  0.38402658    -0.88910
Mn132      Mn  0.30396728  0.02139105  0.23110762     1.47860
O133        O  0.21150957  0.44682700  0.22530956    -0.77380
C134        C  0.18842486  0.43952189  0.32999606     1.16350
O135        O  0.26501740  0.09455350  0.27449467    -0.76110
O136        O  0.26487817  0.44423162  0.26958808    -0.75730
Mn137      Mn  0.14134791  0.49466089  0.29869729     1.51060
O138        O  0.11511822  0.04267437  0.22022269    -0.88080
O139        O  0.30365454  0.98520723  0.27053853    -0.95610
O140        O  0.12607074  0.44713079  0.27167435    -0.90620
C141        C  0.29644622  0.95314755  0.26847225     1.14140
O142        O  0.33630598  0.21929716  0.44600804    -0.87260
C143        C  0.15273746  0.17343638  0.51199825     1.12780
O144        O  0.28635706  0.24820258  0.50376981    -1.35070
O145        O  0.18530500  0.18525276  0.44089026    -0.88750
O146        O  0.35105906  0.27322825  0.46456662    -0.89410
O147        O  0.28995695  0.31777212  0.44294874    -0.78240
O148        O  0.26264828  0.19846989  0.45458047    -1.00320
C149        C  0.19108000  0.32142193  0.44372690     1.22820
O150        O  0.23366343  0.30249533  0.01639597    -1.35220
Mn151      Mn  0.24092693  0.25134723  0.04056075     1.82050
O152        O  0.21724882  0.30244216  0.43414794    -0.77310
O153        O  0.16935502  0.24333101  0.43309221    -0.86710
C154        C  0.16394819  0.25243430  0.06022350     1.13910
C155        C  0.16967724  0.21104924  0.42325138     1.08630
O156        O  0.26963931  0.26489933  0.08678732    -0.78250
O157        O  0.21576997  0.23828513  0.49278914    -1.31940
O158        O  0.30207434  0.30050247  0.05571326    -0.97460
C159        C  0.20810067  0.39406751  0.50166776     1.07340
Mn160      Mn  0.16286260  0.25655648  0.48444635     1.48570
O161        O  0.24073405  0.38185724  0.50444191    -0.86660
Mn162      Mn  0.32739246  0.28215182  0.01378230     1.49560
O163        O  0.34170991  0.18856577  0.51999472    -0.90540
C164        C  0.26455789  0.20979761  0.42447640     1.20540
C165        C  0.36473981  0.20735171  0.03468833     1.12590
Mn166      Mn  0.25194337  0.27580660  0.46665304     1.80970
O167        O  0.16019173  0.27115168  0.03288964    -0.95690
Mn168      Mn  0.30131895  0.19668922  0.48585794     1.49260
C169        C  0.35078926  0.25009495  0.44093530     1.09110
Mn170      Mn  0.17942187  0.32005132  0.02402601     1.49930
C171        C  0.21201619  0.34808917  0.09149394     1.12020
O172        O  0.29592697  0.31870433  0.49535113    -1.01490
O173        O  0.14206782  0.20364470  0.49790258    -0.91150
C174        C  0.30344607  0.33355739  0.46829220     1.23300
O175        O  0.17319036  0.31086024  0.47132579    -1.01880
O176        O  0.18489088  0.16835571  0.52009740    -0.89280
O177        O  0.18634323  0.33027034  0.07849700    -0.88880
O178        O  0.36296413  0.24176675  0.03589019    -0.88910
Mn179      Mn  0.22360563  0.18287953  0.48349193     1.47860
O180        O  0.19480138  0.24907044  0.07259084    -0.77380
C181        C  0.29772376  0.28346821  0.08336017     1.16350
O182        O  0.26364113  0.24396208  0.41987695    -0.76110
O183        O  0.24769897  0.20197859  0.06398524    -0.75730
Mn184      Mn  0.26960466  0.33849215  0.03342131     1.51060
O185        O  0.18646084  0.37378710  0.01734727    -0.88080
O186        O  0.26461280  0.17349303  0.51812797    -0.95610
O187        O  0.24313692  0.35059063  0.07806391    -0.90620
C188        C  0.26302648  0.17555880  0.05084874     1.14140
C189        C  0.29463948  0.16266440  0.10768039     0.24510
C190        C  0.27954094  0.14923794  0.07664892    -0.23600
C191        C  0.27551554  0.11181119  0.07446056     0.19420
C192        C  0.28331908  0.08876002  0.10378033     0.24450
C193        C  0.29592652  0.10246412  0.13589672    -0.23540
C194        C  0.30296005  0.13956389  0.13669809     0.19350
F195        F  0.31491619  0.15401811  0.16671061    -0.13500
F196        F  0.30079834  0.19861303  0.11021763    -0.15860
F197        F  0.27436186  0.05349823  0.10188940    -0.15870
F198        F  0.26015022  0.09793522  0.04571154    -0.13500
C199        C  0.19756238  0.39231523  0.17863559     0.24510
C200        C  0.20503080  0.42887462  0.16802272    -0.23600
C201        C  0.21415576  0.43749849  0.13288840     0.19420
C202        C  0.21748717  0.41018285  0.10917806     0.24450
C203        C  0.20596506  0.37468776  0.11835834    -0.23540
C204        C  0.19618960  0.36562854  0.15332638     0.19350
F205        F  0.18797210  0.33094485  0.16327426    -0.13500
F206        F  0.18986778  0.38276651  0.21303487    -0.15860
F207        F  0.23469889  0.41797436  0.07771125    -0.15870
F208        F  0.22253464  0.47183216  0.12189279    -0.13500
C209        C  0.15424691  0.39109485  0.37098416     0.24510
C210        C  0.18611320  0.40948981  0.35954727    -0.23600
C211        C  0.21722505  0.39893884  0.37741922     0.19420
C212        C  0.21649001  0.37434223  0.40691778     0.24450
C213        C  0.18546264  0.35515583  0.41862640    -0.23540
C214        C  0.15452342  0.36315657  0.39876748     0.19350
F215        F  0.12545058  0.34226324  0.40482749    -0.13500
F216        F  0.12342403  0.39838070  0.35375442    -0.15860
F217        F  0.24766906  0.36763512  0.42307223    -0.15870
F218        F  0.24938590  0.41124516  0.36535733    -0.13500
C219        C  0.29306945  0.11944610  0.39236266     0.24510
C220        C  0.26596052  0.11292009  0.36877818    -0.23600
C221        C  0.24441845  0.14232782  0.35661113     0.19420
C222        C  0.24762427  0.17678210  0.37078838     0.24450
C223        C  0.27157979  0.18190142  0.39799538    -0.23540
C224        C  0.29527510  0.15302782  0.40753191     0.19350
F225        F  0.31813570  0.15562692  0.43462213    -0.13500
F226        F  0.31527009  0.09227477  0.40358048    -0.15860
F227        F  0.22498994  0.20389481  0.36047644    -0.15870
F228        F  0.21979871  0.13782575  0.33154260    -0.13500
C229        C  0.36476225  0.09602050  0.28094554     0.24510
C230        C  0.33060550  0.10938642  0.26989016    -0.23600
C231        C  0.33003421  0.14285965  0.25141715     0.19420
C232        C  0.36195166  0.16225683  0.24425212     0.24450
C233        C  0.39601911  0.14993938  0.25662751    -0.23540
C234        C  0.39678707  0.11602916  0.27465995     0.19350
F235        F  0.42806472  0.10293464  0.28771156    -0.13500
F236        F  0.36719681  0.06338385  0.29849106    -0.15860
F237        F  0.35930382  0.19356986  0.22456169    -0.15870
F238        F  0.29866523  0.15630658  0.23886353    -0.13500
C239        C  0.35633728  0.43760378  0.24489183     0.24510
C240        C  0.32297259  0.42617990  0.25812693    -0.23600
C241        C  0.31278632  0.38961189  0.25523440     0.19420
C242        C  0.33606968  0.36511513  0.23942013     0.24450
C243        C  0.36871849  0.37727036  0.22510010    -0.23540
C244        C  0.37770899  0.41407103  0.22585799     0.19350
F245        F  0.41025747  0.42569913  0.21352253    -0.13500
F246        F  0.36878892  0.47107927  0.25153965    -0.15860
F247        F  0.32842429  0.32918687  0.24104849    -0.15870
F248        F  0.28117000  0.37717205  0.26919211    -0.13500
C249        C  0.12183109  0.17874682  0.21506214     0.24510
C250        C  0.09327024  0.16913497  0.23902932    -0.23600
C251        C  0.09392249  0.13382557  0.25328858     0.19420
C252        C  0.12228609  0.10990139  0.24573129     0.24450
C253        C  0.14769725  0.11607147  0.21793720    -0.23540
C254        C  0.14838202  0.15249986  0.20446121     0.19350
F255        F  0.17545227  0.16315234  0.18195768    -0.13500
F256        F  0.12371353  0.21311378  0.20122568    -0.15860
F257        F  0.12659636  0.08179020  0.26854303    -0.15870
F258        F  0.06736099  0.12257192  0.27616469    -0.13500
C259        C  0.05253725  0.36872908  0.23290061     0.24510
C260        C  0.06141609  0.35104977  0.20164615    -0.23600
C261        C  0.09083916  0.36421745  0.18148766     0.19420
C262        C  0.10848866  0.39572108  0.19169829     0.24450
C263        C  0.10251348  0.40975257  0.22595088    -0.23540
C264        C  0.07366507  0.39599428  0.24605092     0.19350
F265        F  0.06396226  0.41130358  0.27699539    -0.13500
F266        F  0.02277424  0.35931184  0.25084503    -0.15860
F267        F  0.12958433  0.41342694  0.16733419    -0.15870
F268        F  0.10194711  0.34731407  0.15174372    -0.13500
C269        C  0.35292274  0.27005295  0.16644351     0.24510
C270        C  0.38829285  0.27597929  0.15247381    -0.23600
C271        C  0.39273085  0.28507248  0.11675271     0.19420
C272        C  0.36304346  0.28952726  0.09568921     0.24450
C273        C  0.32784129  0.28211104  0.10858214    -0.23540
C274        C  0.32317228  0.27223750  0.14443572     0.19350
F275        F  0.28993504  0.26561644  0.15837943    -0.13500
F276        F  0.34674131  0.26262948  0.20149931    -0.15860
F277        F  0.36955643  0.30012756  0.06188334    -0.15870
F278        F  0.42595982  0.28894562  0.10180147    -0.13500
C279        C  0.09809026  0.24971816  0.07521092     0.24510
C280        C  0.13266257  0.23512146  0.07911246    -0.23600
C281        C  0.13678679  0.20331988  0.10080532     0.19420
C282        C  0.10768014  0.18929116  0.12125075     0.24450
C283        C  0.07487394  0.20786949  0.12175911    -0.23540
C284        C  0.06959716  0.23620628  0.09618823     0.19350
F285        F  0.03744319  0.25367572  0.09444555    -0.13500
F286        F  0.09226261  0.27903034  0.05328669    -0.15860
F287        F  0.11178449  0.15855089  0.14134349    -0.15870
F288        F  0.16905465  0.18618747  0.10265926    -0.13500
C289        C  0.13983706  0.23410769  0.36948296     0.24510
C290        C  0.14594190  0.20472401  0.39351722    -0.23600
C291        C  0.12015707  0.17737740  0.39713324     0.19420
C292        C  0.08634884  0.18273658  0.38232772     0.24450
C293        C  0.07864668  0.21489275  0.36264857    -0.23540
C294        C  0.10639730  0.23926683  0.35446074     0.19350
F295        F  0.10116691  0.26825233  0.33209168    -0.13500
F296        F  0.16516684  0.25996137  0.36358923    -0.15860
F297        F  0.06066636  0.15734070  0.38845207    -0.15870
F298        F  0.12661778  0.14704945  0.41733334    -0.13500
C299        C  0.38674756  0.29314061  0.40166328     0.24510
C300        C  0.36535180  0.26182017  0.40549383    -0.23600
C301        C  0.35412737  0.24537252  0.37468345     0.19420
C302        C  0.36531978  0.25841793  0.34119783     0.24450
C303        C  0.38914914  0.28773395  0.33768540    -0.23540
C304        C  0.39815268  0.30611868  0.36818752     0.19350
F305        F  0.42012455  0.33527532  0.36588632    -0.13500
F306        F  0.39797626  0.31067287  0.43034540    -0.15860
F307        F  0.35535709  0.23999165  0.31253719    -0.15870
F308        F  0.33360876  0.21548442  0.37662578    -0.13500
C309        C  0.33462846  0.42467615  0.49254379     0.24510
C310        C  0.35873053  0.41302175  0.01953788    -0.23600
C311        C  0.35652487  0.37692563  0.02738443     0.19420
C312        C  0.35490411  0.35435712  0.99859565     0.24450
C313        C  0.33041582  0.36269419  0.47139153    -0.23540
C314        C  0.31928030  0.39949022  0.46967204     0.19350
F315        F  0.29218732  0.41045482  0.44861118    -0.13500
F316        F  0.32366296  0.45966218  0.49125691    -0.15860
F317        F  0.37190513  0.32209081  0.00035959    -0.15870
F318        F  0.35713195  0.36499702  0.06162443    -0.13500
C319        C  0.42965965  0.19239538  0.52896622     0.24510
C320        C  0.39627423  0.18601598  0.04604891    -0.23600
C321        C  0.38903981  0.15057206  0.05847435     0.19420
C322        C  0.40835436  0.12155077  0.04536015     0.24450
C323        C  0.43905854  0.12729816  0.02356841    -0.23540
C324        C  0.45189368  0.16307278  0.51928539     0.19350
F325        F  0.48489911  0.16993001  0.50488214    -0.13500
F326        F  0.43878850  0.22660913  0.51818321    -0.15860
F327        F  0.39649226  0.08763584  0.05416946    -0.15870
F328        F  0.35911662  0.14338129  0.07805876    -0.13500
C329        C  0.15697735  0.42448356  0.04693888     0.24510
C330        C  0.16527466  0.39731722  0.02019320    -0.23600
C331        C  0.13120464  0.39061800  0.50126678     0.19420
C332        C  0.09655349  0.39399953  0.01812392     0.24450
C333        C  0.09044001  0.41680398  0.04711426    -0.23540
C334        C  0.12170569  0.43177154  0.06100391     0.19350
F335        F  0.11782536  0.45848098  0.08465427    -0.13500
F336        F  0.18249657  0.44855952  0.05438852    -0.15860
F337        F  0.06944524  0.38259235  0.49929964    -0.15870
F338        F  0.13261557  0.37424187  0.46990635    -0.13500
C339        C  0.14119110  0.10742486  0.02736429     0.24510
C340        C  0.12957142  0.14114245  0.51224034    -0.23600
C341        C  0.09986906  0.14161687  0.49032447     0.19420
C342        C  0.08441740  0.10942371  0.48099870     0.24450
C343        C  0.09635312  0.07569070  0.49520480    -0.23540
C344        C  0.12438074  0.07500077  0.01915456     0.19350
F345        F  0.13449857  0.04336628  0.03559986    -0.13500
F346        F  0.16883211  0.10587486  0.05010658    -0.15860
F347        F  0.05727276  0.11174197  0.45792198    -0.15870
F348        F  0.08669117  0.17314499  0.47600293    -0.13500
C349        C  0.30953689  0.00561317  0.42447186     0.24510
C350        C  0.30515953  0.47732391  0.40079409    -0.23600
C351        C  0.33384560  0.45329221  0.39414501     0.19420
C352        C  0.36699183  0.45819392  0.40930113     0.24450
C353        C  0.37244396  0.48749398  0.43141236    -0.23540
C354        C  0.34306456  0.01125728  0.43921966     0.19350
F355        F  0.34698600  0.03955091  0.46081325    -0.13500
F356        F  0.28225632  0.02911949  0.43131423    -0.15860
F357        F  0.39371510  0.43408635  0.40219159    -0.15870
F358        F  0.33003750  0.42550803  0.37186336    -0.13500
C359        C  0.14103690  0.05687758  0.38192983     0.24510
C360        C  0.14201662  0.08124178  0.35244568    -0.23600
C361        C  0.10954127  0.09663936  0.34233649     0.19420
C362        C  0.07740642  0.07866668  0.35121996     0.24450
C363        C  0.07819039  0.04647792  0.37246656    -0.23540
C364        C  0.11066038  0.03601020  0.38802638     0.19350
F365        F  0.11200485  0.50768547  0.41184274    -0.13500
F366        F  0.17161989  0.04639075  0.39812680    -0.15860
F367        F  0.04564023  0.09424719  0.34230315    -0.15870
F368        F  0.10959687  0.12959846  0.32557091    -0.13500
C369        C  0.05144966  0.06749798  0.16166942     0.24510
C370        C  0.05602829  0.03560862  0.14253607    -0.23600
C371        C  0.05294214  0.00223783  0.16228304     0.19420
C372        C  0.05055036  0.00135064  0.19964735     0.24450
C373        C  0.05548851  0.03292975  0.21855854    -0.23540
C374        C  0.04909294  0.06579378  0.19909625     0.19350
F375        F  0.04431808  0.09693986  0.21638582    -0.13500
F376        F  0.04962490  0.10034735  0.14448986    -0.15860
F377        F  0.04947878  0.46867223  0.21739550    -0.15870
F378        F  0.05326424  0.46994745  0.14575606    -0.13500
C379        C  0.33123203  0.98208358  0.10357214     0.24510
C380        C  0.33327613  0.98423612  0.14034772    -0.23600
C381        C  0.36779918  0.98479215  0.15526717     0.19420
C382        C  0.39910523  0.98036197  0.13461808     0.24450
C383        C  0.39710398  0.97910631  0.09785967    -0.23540
C384        C  0.36270698  0.98102839  0.08255809     0.19350
F385        F  0.35948122  0.98433864  0.04694455    -0.13500
F386        F  0.29897094  0.98276150  0.08774840    -0.15860
F387        F  0.43142260  0.98169932  0.15020710    -0.15870
F388        F  0.37167725  0.99411994  0.18922897    -0.13500
C389        C  0.40591939  0.11853269  0.37753808     0.24510
C390        C  0.43099262  0.11567953  0.40449770    -0.23600
C391        C  0.43842668  0.14723445  0.42328000     0.19420
C392        C  0.42701820  0.18117079  0.41111619     0.24450
C393        C  0.41380906  0.18388635  0.37709812    -0.23540
C394        C  0.39614947  0.15334427  0.36456775     0.19350
F395        F  0.37581411  0.15705703  0.33545356    -0.13500
F396        F  0.39482575  0.08866205  0.36117480    -0.15860
F397        F  0.44001091  0.21097183  0.42644762    -0.15870
F398        F  0.96274056  0.14640602  0.44900135    -0.13500
C399        C  0.51446162  0.41458783  0.35790903     0.24510
C400        C  0.03176782  0.40999690  0.39092851    -0.23600
C401        C  0.05144405  0.37699853  0.39549923     0.19420
C402        C  0.05366465  0.35003525  0.36843675     0.24450
C403        C  0.03645858  0.35480235  0.33535438    -0.23540
C404        C  0.51582337  0.38775208  0.33173387     0.19350
F405        F  0.49466317  0.39328157  0.30330322    -0.13500
F406        F  0.49363758  0.44441051  0.35170765    -0.15860
F407        F  0.06938657  0.31760372  0.37621007    -0.15870
F408        F  0.06573200  0.36924892  0.42753324    -0.13500
C409        C  0.44349029  0.37023608  0.10826472     0.24510
C410        C  0.97583709  0.37026767  0.13402460    -0.23600
C411        C  0.00983856  0.36933692  0.11130266     0.19420
C412        C  0.01140482  0.36133279  0.07468829     0.24450
C413        C  0.98104313  0.36057487  0.05293195    -0.23540
C414        C  0.44749190  0.36060925  0.07181445     0.19350
F415        F  0.41903595  0.35081395  0.05371799    -0.13500
F416        F  0.40984927  0.37495109  0.12179803    -0.15860
F417        F  0.04409154  0.35519181  0.05985748    -0.15870
F418        F  0.04119050  0.37516272  0.12712681    -0.13500
C419        C  0.43021069  0.13101662  0.13456397     0.24510
C420        C  0.45184683  0.16073002  0.12381659    -0.23600
C421        C  0.97870712  0.15605254  0.09820297     0.19420
C422        C  0.98866177  0.12158463  0.08872543     0.24450
C423        C  0.46872664  0.09072121  0.10069265    -0.23540
C424        C  0.43858284  0.09626888  0.12294892     0.19350
F425        F  0.41794372  0.06789677  0.13434478    -0.13500
F426        F  0.40297375  0.13519897  0.15863158    -0.15860
F427        F  0.02015663  0.12003646  0.07099242    -0.15870
F428        F  0.99940655  0.18417932  0.08610882    -0.13500
O429        O  0.04873190  0.04995347  0.92430596    -0.87260
C430        C  0.47795532  0.05329571  0.59055050     1.12780
O431        O  0.99092463  0.02094674  0.96004897    -1.35070
O432        O  0.05796489  0.06519608  0.58317367    -0.88750
O433        O  0.01937510  0.52118841  0.88272302    -0.89410
O434        O  0.04458196  0.45068087  0.94260074    -0.78240
O435        O  0.04113335  0.04944323  0.00055659    -1.00320
C436        C  0.05789110  0.44097247  0.54254430     1.22820
O437        O  0.47702022  0.46116212  0.49932326    -1.35220
Mn438      Mn  0.45742107  0.01385766  0.50422401     1.82060
O439        O  0.05999075  0.45699895  0.51350331    -0.77310
O440        O  0.05738036  0.00666477  0.58727910    -0.86710
C441        C  0.42964581  0.98332288  0.57457559     1.13910
C442        C  0.05929214  0.03607230  0.60245949     1.08630
O443        O  0.41004582  0.00929327  0.97621756    -0.78250
O444        O  0.00639600  0.01906742  0.53287557    -1.31940
O445        O  0.43425906  0.47697932  0.93618906    -0.97460
C446        C  0.48507066  0.37562267  0.51387008     1.07340
Mn447      Mn  0.00714747  0.98674571  0.58385876     1.48570
O448        O  0.46214058  0.37671184  0.98828955    -0.86660
Mn449      Mn  0.47408027  0.50027667  0.91185962     1.49560
O450        O  0.48542497  0.09179877  0.92082985    -0.90540
C451        C  0.07210581  0.04465706  0.99332211     1.20540
C452        C  0.45483001  0.08381711  0.91000428     1.12590
Mn453      Mn  0.02713171  0.48683915  0.98673373     1.80970
O454        O  0.45800360  0.46671598  0.57939936    -0.95690
Mn455      Mn  0.01478374  0.06978265  0.96100722     1.49260
C456        C  0.04665047  0.03760600  0.89392878     1.09110
Mn457      Mn  0.47796863  0.43139802  0.54683705     1.49930
C458        C  0.39728677  0.42178496  0.51331385     1.12020
O459        O  0.49201423  0.44818950  0.92347306    -1.01490
O460        O  0.98276671  0.02836595  0.61309954    -0.91150
C461        C  0.02306124  0.43739288  0.92060778     1.23300
O462        O  0.02908779  0.44281756  0.56108133    -1.01880
O463        O  0.98629185  0.04483791  0.55924206    -0.89280
O464        O  0.42089109  0.41977983  0.53768047    -0.88900
O465        O  0.44582730  0.05113500  0.90390556    -0.88910
Mn466      Mn  0.02296634  0.07767377  0.53821378     1.47860
O467        O  0.42573555  0.00399748  0.54783945    -0.77380
C468        C  0.40754969  0.49250825  0.94780303     1.16350
O469        O  0.07761983  0.01530004  0.97857887    -0.76110
O470        O  0.43917756  0.06645465  0.00720900    -0.75730
Mn471      Mn  0.45279191  0.43105379  0.95815321     1.51060
O472        O  0.50474750  0.40136369  0.51158842    -0.88080
O473        O  0.98926821  0.09382365  0.00073991    -0.95610
O474        O  0.40541619  0.42686175  0.98187340    -0.90620
C475        C  0.45695387  0.09499809  0.00800178     1.14140
O476        O  0.03320689  0.19462734  0.82797002    -0.87260
C477        C  0.45798476  0.18958698  0.64856078     1.12780
O478        O  0.48492504  0.24156923  0.78581284    -1.35070
O479        O  0.03488527  0.18226865  0.66891314    -0.88750
O480        O  0.02678892  0.25102867  0.84921411    -0.89410
O481        O  0.05023569  0.30254947  0.79187267    -0.78240
O482        O  0.03132716  0.18139781  0.75117287    -1.00320
C483        C  0.04517317  0.31486913  0.69681168     1.22820
O484        O  0.47513030  0.29838367  0.74106477    -1.35220
Mn485      Mn  0.44721812  0.25334210  0.74677257     1.82060
O486        O  0.05781116  0.29028205  0.71611627    -0.77310
O487        O  0.04677927  0.24069087  0.66476020    -0.86710
C488        C  0.42000942  0.27341350  0.67554808     1.13910
C489        C  0.05174849  0.20927893  0.65411339     1.08630
O490        O  0.40619312  0.27297133  0.77923148    -0.78250
O491        O  0.99155215  0.23667037  0.71526545    -1.31940
O492        O  0.44180680  0.30562785  0.80730425    -0.97460
C493        C  0.97564150  0.38664118  0.67790512     1.07340
Mn494      Mn  0.99685414  0.26233683  0.66453205     1.48570
O495        O  0.47465132  0.37870586  0.71353673    -0.86660
Mn496      Mn  0.47889687  0.27526569  0.82925429     1.49560
O497        O  0.45440244  0.18244959  0.82998970    -0.90540
C498        C  0.06199849  0.19415435  0.74872012     1.20540
C499        C  0.43860487  0.20264785  0.85211662     1.12590
Mn500      Mn  0.02292529  0.26630191  0.75189933     1.80970
O501        O  0.44992262  0.28630908  0.66714420    -0.95690
Mn502      Mn  0.99456408  0.18450698  0.79150599     1.49260
C503        C  0.04364501  0.22066665  0.84614558     1.09110
Mn504      Mn  0.46927416  0.32484387  0.69591709     1.49930
C505        C  0.39949914  0.35410493  0.72843557     1.12020
O506        O  0.49893887  0.31765588  0.80346396    -1.01490
O507        O  0.97547736  0.21766990  0.63857643    -0.91150
C508        C  0.02944854  0.32430745  0.80872717     1.23300
O509        O  0.01640402  0.30907764  0.68208036    -1.01880
O510        O  0.95323691  0.18087049  0.68058619    -0.89280
O511        O  0.41569051  0.34212503  0.70181331    -0.88880
O512        O  0.44639875  0.23589995  0.85620929    -0.88910
Mn513      Mn  0.99564370  0.17980828  0.71373356     1.47860
O514        O  0.41379042  0.26209259  0.70654677    -0.77380
C515        C  0.41229117  0.29160142  0.80555939     1.16350
O516        O  0.06597687  0.22755923  0.75503481    -0.76110
O517        O  0.41780603  0.20857631  0.75301779    -0.75730
Mn518      Mn  0.46392391  0.34136974  0.76879713     1.51060
O519        O  0.47231827  0.35996646  0.66009249    -0.88080
O520        O  0.46012485  0.16973137  0.75478710    -0.95610
O521        O  0.41297388  0.35315169  0.75821616    -0.90620
C522        C  0.42717336  0.17644057  0.75474884     1.14140
O523        O  0.28690709  0.05651898  0.84838407    -0.87260
C524        C  0.30092772  0.98990761  0.66372346     1.12780
O525        O  0.23792231  0.01457662  0.80361087    -1.35070
O526        O  0.30969884  0.06256187  0.68745882    -0.88750
O527        O  0.22794363  0.06353257  0.85972524    -0.89410
O528        O  0.18731098  0.08537136  0.80529379    -0.78240
O529        O  0.30401978  0.05281252  0.77158176    -1.00320
C530        C  0.17985285  0.08987629  0.71440075     1.22820
O531        O  0.17927398  0.01330780  0.75942556    -1.35220
Mn532      Mn  0.22339971  0.97867963  0.76495698     1.82050
O533        O  0.20471860  0.09614309  0.73429243    -0.77310
O534        O  0.25425400  0.08164195  0.67757734    -0.86710
C535        C  0.20630529  0.45710310  0.69389670     1.13910
C536        C  0.28707865  0.08210220  0.66969294     1.08630
O537        O  0.20419697  0.43497128  0.80049237    -0.78250
O538        O  0.24745875  0.02255459  0.73197510    -1.31940
O539        O  0.17652998  0.47021192  0.83416391    -0.97460
C540        C  0.08934567  0.03148583  0.73874828     1.07340
Mn541      Mn  0.22788140  0.03370874  0.68062685     1.48570
O542        O  0.09415994  0.01689091  0.76986083    -0.86660
Mn543      Mn  0.20473478  0.01314096  0.84937475     1.49560
O544        O  0.28389944  0.97372870  0.84413178    -0.90540
C545        C  0.29799575  0.08498888  0.77220860     1.20540
C546        C  0.27551201  0.97915324  0.87580035     1.12590
Mn547      Mn  0.22057579  0.05592938  0.76876624     1.80970
O548        O  0.19931947  0.98930685  0.68626040    -0.95690
Mn549      Mn  0.29358517  0.01665483  0.81003807     1.49260
C550        C  0.25984601  0.07552220  0.85807166     1.09110
Mn551      Mn  0.15808334  0.01446107  0.70712266     1.49930
C552        C  0.12149858  0.44235490  0.73802067     1.12020
O553        O  0.16606589  0.03465127  0.82186668    -1.01490
O554        O  0.27335483  0.00794170  0.65360991    -0.91150
C555        C  0.16420453  0.06734244  0.82335201     1.23300
O556        O  0.18214769  0.06092040  0.69724557    -1.01880
O557        O  0.30395250  0.98110798  0.69569171    -0.89280
O558        O  0.13123513  0.46533784  0.71396605    -0.88880
O559        O  0.24394096  0.48972908  0.88397352    -0.88910
Mn560      Mn  0.30395087  0.02140483  0.73112067     1.47860
O561        O  0.21137748  0.44681484  0.72521606    -0.77380
C562        C  0.18832449  0.43950784  0.82997559     1.16350
O563        O  0.26498834  0.09457502  0.77449941    -0.76110
O564        O  0.26485788  0.44417968  0.76947403    -0.75730
Mn565      Mn  0.14124298  0.49465976  0.79856487     1.51060
O566        O  0.11513761  0.04274103  0.72031332    -0.88080
O567        O  0.30364987  0.98523368  0.77056211    -0.95610
O568        O  0.12591889  0.44714397  0.77141424    -0.90620
C569        C  0.29645131  0.95317164  0.76848886     1.14140
O570        O  0.33632210  0.21948063  0.94618905    -0.87260
C571        C  0.15270091  0.17334612  0.01190435     1.12780
O572        O  0.28614532  0.24837359  0.00385978    -1.35070
O573        O  0.18530485  0.18528991  0.94080631    -0.88750
O574        O  0.35060133  0.27363240  0.96454126    -0.89410
O575        O  0.28963525  0.31812639  0.94315948    -0.78240
O576        O  0.26261926  0.19863257  0.95460786    -1.00320
C577        C  0.19083789  0.32152245  0.94387058     1.22820
O578        O  0.23403229  0.30247421  0.51626714    -1.35220
Mn579      Mn  0.24116657  0.25131790  0.54049543     1.82050
O580        O  0.21701786  0.30258367  0.93424113    -0.77310
O581        O  0.16937125  0.24337085  0.93305704    -0.86710
C582        C  0.16419768  0.25262861  0.56023563     1.13910
C583        C  0.16968945  0.21110562  0.92318074     1.08630
O584        O  0.26995331  0.26484787  0.58669252    -0.78250
O585        O  0.21562383  0.23830971  0.99281055    -1.31940
O586        O  0.30242565  0.30035400  0.55556215    -0.97460
C587        C  0.20733119  0.39398162  0.00198727     1.07340
Mn588      Mn  0.16271314  0.25648469  0.98441973     1.48570
O589        O  0.23999384  0.38183293  0.00471120    -0.86660
Mn590      Mn  0.32771049  0.28187769  0.51371371     1.49560
O591        O  0.34148938  0.18874519  0.02021429    -0.90540
C592        C  0.26453967  0.20997128  0.92450874     1.20540
C593        C  0.36485605  0.20712644  0.53469114     1.12590
Mn594      Mn  0.25172520  0.27595598  0.96674501     1.80970
O595        O  0.16047292  0.27133629  0.53288928    -0.95690
Mn596      Mn  0.30122795  0.19686908  0.98596127     1.49260
C597        C  0.35059274  0.25037412  0.94101844     1.09110
Mn598      Mn  0.17985531  0.32018175  0.52389143     1.49930
C599        C  0.21260941  0.34825566  0.59129658     1.12020
O600        O  0.29550015  0.31899988  0.99556503    -1.01490
O601        O  0.14201624  0.20353224  0.99778153    -0.91150
C602        C  0.30297249  0.33397288  0.96855489     1.23300
O603        O  0.17292392  0.31083676  0.97141492    -1.01880
O604        O  0.18485356  0.16828402  0.02000447    -0.89280
O605        O  0.18690770  0.33045748  0.57833050    -0.88880
O606        O  0.36305836  0.24151856  0.53604583    -0.88910
Mn607      Mn  0.22356623  0.18293285  0.98345496     1.47860
O608        O  0.19505622  0.24918933  0.57257780    -0.77380
C609        C  0.29805143  0.28339365  0.58324208     1.16350
O610        O  0.26356347  0.24414724  0.91992998    -0.76110
O611        O  0.24782823  0.20194437  0.56394167    -0.75730
Mn612      Mn  0.27012905  0.33841224  0.53319370     1.51060
O613        O  0.18711614  0.37388768  0.51699931    -0.88080
O614        O  0.26451865  0.17358970  0.01814805    -0.95610
O615        O  0.24371714  0.35073597  0.57781881    -0.90620
C616        C  0.26314432  0.17550594  0.55082324     1.14140
C617        C  0.29472326  0.16261910  0.60766251     0.24510
C618        C  0.27962558  0.14918762  0.57663475    -0.23600
C619        C  0.27556260  0.11176511  0.57446041     0.19420
C620        C  0.28332648  0.08872435  0.60379446     0.24450
C621        C  0.29593090  0.10243709  0.63590756    -0.23540
C622        C  0.30300249  0.13952845  0.63669577     0.19350
F623        F  0.31494978  0.15398791  0.66670911    -0.13500
F624        F  0.30091346  0.19856364  0.61018294    -0.15860
F625        F  0.27433298  0.05347200  0.60191578    -0.15870
F626        F  0.26019593  0.09788887  0.54571171    -0.13500
C627        C  0.19715740  0.39245612  0.67837589     0.24510
C628        C  0.20488940  0.42898205  0.66788210    -0.23600
C629        C  0.21450000  0.43759231  0.63286350     0.19420
C630        C  0.21822576  0.41027441  0.60920461     0.24450
C631        C  0.20656957  0.37479544  0.61822461    -0.23540
C632        C  0.19615397  0.36576811  0.65303635     0.19350
F633        F  0.18767719  0.33111285  0.66284535    -0.13500
F634        F  0.18895148  0.38294007  0.71267720    -0.15860
F635        F  0.23576114  0.41810290  0.57791616    -0.15870
F636        F  0.22290335  0.47193390  0.62194505    -0.13500
C637        C  0.15411723  0.39110362  0.87100612     0.24510
C638        C  0.18598227  0.40953182  0.85961638    -0.23600
C639        C  0.21703274  0.39909867  0.87766136     0.19420
C640        C  0.21621768  0.37461398  0.90726113     0.24450
C641        C  0.18520635  0.35533871  0.91886711    -0.23540
C642        C  0.15434705  0.36322729  0.89886527     0.19350
F643        F  0.12537665  0.34216171  0.90475931    -0.13500
F644        F  0.12336204  0.39826645  0.85362496    -0.15860
F645        F  0.24732172  0.36807879  0.92360711    -0.15870
F646        F  0.24922365  0.41136504  0.86565316    -0.13500
C647        C  0.29301772  0.11956152  0.89243096     0.24510
C648        C  0.26591312  0.11301424  0.86884171    -0.23600
C649        C  0.24437082  0.14242394  0.85667177     0.19420
C650        C  0.24758630  0.17689740  0.87082768     0.24450
C651        C  0.27155476  0.18205096  0.89802171    -0.23540
C652        C  0.29523734  0.15316722  0.90757358     0.19350
F653        F  0.31811962  0.15579825  0.93464305    -0.13500
F654        F  0.31521700  0.09239525  0.90366322    -0.15860
F655        F  0.22496190  0.20400745  0.86049060    -0.15870
F656        F  0.21974570  0.13790523  0.83160934    -0.13500
C657        C  0.36472941  0.09603712  0.78091134     0.24510
C658        C  0.33056970  0.10940873  0.76987353    -0.23600
C659        C  0.32998829  0.14288714  0.75140963     0.19420
C660        C  0.36189956  0.16229513  0.74425330     0.24450
C661        C  0.39596386  0.14997684  0.75662670    -0.23540
C662        C  0.39674652  0.11605184  0.77462879     0.19350
F663        F  0.42803183  0.10294895  0.78765668    -0.13500
F664        F  0.36717534  0.06338984  0.79843630    -0.15860
F665        F  0.35925161  0.19361230  0.72456912    -0.15870
F666        F  0.29861699  0.15632650  0.73885529    -0.13500
C667        C  0.35638037  0.43774341  0.74480033     0.24510
C668        C  0.32303054  0.42623642  0.75803222    -0.23600
C669        C  0.31296357  0.38963293  0.75518221     0.19420
C670        C  0.33635062  0.36517644  0.73943976     0.24450
C671        C  0.36898313  0.37740739  0.72512487    -0.23540
C672        C  0.37786646  0.41423262  0.72585008     0.19350
F673        F  0.41039975  0.42592932  0.71352785    -0.13500
F674        F  0.36871500  0.47128105  0.75137703    -0.15860
F675        F  0.32880213  0.32922665  0.74110942    -0.15870
F676        F  0.28136388  0.37712517  0.76911838    -0.13500
C677        C  0.12193491  0.17889651  0.71497870     0.24510
C678        C  0.09335451  0.16937319  0.73895520    -0.23600
C679        C  0.09394489  0.13406952  0.75325076     0.19420
C680        C  0.12225952  0.11006974  0.74571556     0.24450
C681        C  0.14769712  0.11616572  0.71792340    -0.23540
C682        C  0.14844262  0.15258396  0.70441304     0.19350
F683        F  0.17553236  0.16316321  0.68190065    -0.13500
F684        F  0.12387269  0.21323923  0.70108906    -0.15860
F685        F  0.12649833  0.08196630  0.76855726    -0.15870
F686        F  0.06735644  0.12288512  0.77612959    -0.13500
C687        C  0.05211105  0.36903568  0.73248588     0.24510
C688        C  0.06079943  0.35151116  0.70110653    -0.23600
C689        C  0.08997205  0.36489917  0.68071545     0.19420
C690        C  0.10788101  0.39620158  0.69110918     0.24450
C691        C  0.10217218  0.40997443  0.72552945    -0.23540
C692        C  0.07336732  0.39618142  0.74566870     0.19350
F693        F  0.06386161  0.41133215  0.77673690    -0.13500
F694        F  0.02240050  0.35956825  0.75051544    -0.15860
F695        F  0.12909381  0.41389465  0.66682195    -0.15870
F696        F  0.10054538  0.34843530  0.65055413    -0.13500
C697        C  0.35314128  0.27019839  0.66641497     0.24510
C698        C  0.38851767  0.27624389  0.65251418    -0.23600
C699        C  0.39299720  0.28542014  0.61681532     0.19420
C700        C  0.36335279  0.28963851  0.59566014     0.24450
C701        C  0.32814317  0.28212725  0.60849794    -0.23540
C702        C  0.32343300  0.27228584  0.64435315     0.19350
F703        F  0.29019543  0.26554394  0.65823710    -0.13500
F704        F  0.34691070  0.26272998  0.70145590    -0.15860
F705        F  0.36994340  0.30002847  0.56181026    -0.15870
F706        F  0.42623612  0.28955326  0.60195799    -0.13500
C707        C  0.09830744  0.24992944  0.57514594     0.24510
C708        C  0.13287782  0.23534409  0.57911901    -0.23600
C709        C  0.13695143  0.20353520  0.60081843     0.19420
C710        C  0.10780384  0.18951510  0.62122345     0.24450
C711        C  0.07499297  0.20809406  0.62166158    -0.23540
C712        C  0.06976554  0.23639481  0.59604468     0.19350
F713        F  0.03758446  0.25379607  0.59416827    -0.13500
F714        F  0.09251117  0.27923470  0.55320474    -0.15860
F715        F  0.11185481  0.15874963  0.64129092    -0.15870
F716        F  0.16920055  0.18636840  0.60269191    -0.13500
C717        C  0.13986961  0.23425850  0.86943800     0.24510
C718        C  0.14594932  0.20483400  0.89343838    -0.23600
C719        C  0.12012436  0.17752577  0.89704445     0.19420
C720        C  0.08632428  0.18294413  0.88224307     0.24450
C721        C  0.07866162  0.21512943  0.86259191    -0.23540
C722        C  0.10642776  0.23948695  0.85443629     0.19350
F723        F  0.10120573  0.26851295  0.83210834    -0.13500
F724        F  0.16522835  0.26008628  0.86356863    -0.15860
F725        F  0.06061108  0.15757298  0.88834059    -0.15870
F726        F  0.12653713  0.14717950  0.91723529    -0.13500
C727        C  0.38662828  0.29334945  0.90173389     0.24510
C728        C  0.36524532  0.26202338  0.90558707    -0.23600
C729        C  0.35414314  0.24546883  0.87479340     0.19420
C730        C  0.36540770  0.25844226  0.84129978     0.24450
C731        C  0.38921105  0.28778800  0.83776285    -0.23540
C732        C  0.39813023  0.30624315  0.86825126     0.19350
F733        F  0.42007304  0.33541931  0.86593342    -0.13500
F734        F  0.39774869  0.31096444  0.93041042    -0.15860
F735        F  0.35552991  0.23992430  0.81266782    -0.15870
F736        F  0.33366716  0.21555038  0.87677082    -0.13500
C737        C  0.33426843  0.42508247  0.99320766     0.24510
C738        C  0.35890394  0.41276792  0.51908240    -0.23600
C739        C  0.35663450  0.37670915  0.52715681     0.19420
C740        C  0.35528023  0.35399893  0.49843041     0.24450
C741        C  0.32986396  0.36319514  0.97176541    -0.23540
C742        C  0.31869634  0.40001140  0.97034698     0.19350
F743        F  0.29149347  0.41114231  0.94949445    -0.13500
F744        F  0.32360379  0.46017152  0.99188556    -0.15860
F745        F  0.37244396  0.32181356  0.50031168    -0.15870
F746        F  0.35844957  0.36496657  0.56136998    -0.13500
C747        C  0.42958041  0.19255396  0.02885045     0.24510
C748        C  0.39634616  0.18581701  0.54612931    -0.23600
C749        C  0.38909489  0.15036804  0.55850204     0.19420
C750        C  0.40841190  0.12137797  0.54534797     0.24450
C751        C  0.43910600  0.12717545  0.52355215    -0.23540
C752        C  0.45183156  0.16320353  0.01924011     0.19350
F753        F  0.48484028  0.17004065  0.00483498    -0.13500
F754        F  0.43871217  0.22675039  0.01801253    -0.15860
F755        F  0.39656096  0.08744882  0.55411504    -0.15870
F756        F  0.35914867  0.14315149  0.57804072    -0.13500
C757        C  0.15794085  0.42505067  0.54642930     0.24510
C758        C  0.16610597  0.39786165  0.51972128    -0.23600
C759        C  0.13029186  0.38969050  0.00192129     0.19420
C760        C  0.09745017  0.39478981  0.51748561     0.24450
C761        C  0.09129945  0.41751656  0.54650868    -0.23540
C762        C  0.12260539  0.43266726  0.56026153     0.19350
F763        F  0.11876804  0.45966683  0.58360076    -0.13500
F764        F  0.18369472  0.44881598  0.55406519    -0.15860
F765        F  0.06857434  0.38167437  0.99999310    -0.15870
F766        F  0.13165606  0.37296199  0.97072166    -0.13500
C767        C  0.14121208  0.10749733  0.52739639     0.24510
C768        C  0.12954344  0.14105793  0.01218964    -0.23600
C769        C  0.09983393  0.14152662  0.99028808     0.19420
C770        C  0.08439436  0.10933469  0.98096870     0.24450
C771        C  0.09632986  0.07561220  0.99519446    -0.23540
C772        C  0.12440613  0.07507411  0.51916393     0.19350
F773        F  0.13452817  0.04343338  0.53559382    -0.13500
F774        F  0.16884544  0.10593394  0.55014688    -0.15860
F775        F  0.05726265  0.11164945  0.95787933    -0.15870
F776        F  0.08663678  0.17304891  0.97597168    -0.13500
C777        C  0.30950926  0.00565807  0.92451287     0.24510
C778        C  0.30503994  0.47741151  0.90086167    -0.23600
C779        C  0.33377725  0.45343195  0.89426691     0.19420
C780        C  0.36693170  0.45850094  0.90934435     0.24450
C781        C  0.37232605  0.48786671  0.93140050    -0.23540
C782        C  0.34303622  0.01131107  0.93925846     0.19350
F783        F  0.34695313  0.03960757  0.96084899    -0.13500
F784        F  0.28222609  0.02916340  0.93134800    -0.15860
F785        F  0.39373742  0.43450187  0.90217910    -0.15870
F786        F  0.33004139  0.42558736  0.87204223    -0.13500
C787        C  0.14101648  0.05687734  0.88192416     0.24510
C788        C  0.14199168  0.08124493  0.85244330    -0.23600
C789        C  0.10951470  0.09664281  0.84234137     0.19420
C790        C  0.07738289  0.07866189  0.85121595     0.24450
C791        C  0.07817261  0.04646677  0.87245440    -0.23540
C792        C  0.11064570  0.03600106  0.88801201     0.19350
F793        F  0.11169489  0.50787403  0.91151818    -0.13500
F794        F  0.17160070  0.04639172  0.89811977    -0.15860
F795        F  0.04561663  0.09423804  0.84229363    -0.15870
F796        F  0.10956698  0.12960619  0.82558606    -0.13500
C797        C  0.05146486  0.06748257  0.66166128     0.24510
C798        C  0.05602754  0.03558447  0.64253805    -0.23600
C799        C  0.05294692  0.00222051  0.66229723     0.19420
C800        C  0.05057789  0.00134697  0.69966179     0.24450
C801        C  0.05552075  0.03293404  0.71855789    -0.23540
C802        C  0.04913432  0.06579464  0.69908905     0.19350
F803        F  0.04443912  0.09695566  0.71637221    -0.13500
F804        F  0.04964968  0.10032708  0.64447117    -0.15860
F805        F  0.04912813  0.46887500  0.71741717    -0.15870
F806        F  0.05304637  0.47007887  0.64578151    -0.13500
C807        C  0.33120485  0.98210667  0.60357303     0.24510
C808        C  0.33324928  0.98427577  0.64034883    -0.23600
C809        C  0.36777221  0.98486994  0.65526336     0.19420
C810        C  0.39908001  0.98045902  0.63461318     0.24450
C811        C  0.39707894  0.97917370  0.59785653    -0.23540
C812        C  0.36268059  0.98105948  0.58255603     0.19350
F813        F  0.35945294  0.98432500  0.54694001    -0.13500
F814        F  0.29894217  0.98274868  0.58775245    -0.15860
F815        F  0.43139626  0.98183157  0.65019912    -0.15870
F816        F  0.37164400  0.99420742  0.68922349    -0.13500
C817        C  0.40585512  0.11849633  0.87750650     0.24510
C818        C  0.43089701  0.11566524  0.90449372    -0.23600
C819        C  0.43825912  0.14721903  0.92330614     0.19420
C820        C  0.42682937  0.18114596  0.91114215     0.24450
C821        C  0.41367860  0.18385451  0.87710149    -0.23540
C822        C  0.39605212  0.15330258  0.86454945     0.19350
F823        F  0.37573985  0.15700886  0.83542029    -0.13500
F824        F  0.39482817  0.08861939  0.86111024    -0.15860
F825        F  0.43977474  0.21095344  0.92649989    -0.15870
F826        F  0.96278136  0.14642042  0.94898706    -0.13500
C827        C  0.51432454  0.41420661  0.85815955     0.24510
C828        C  0.03214118  0.41048477  0.89054456    -0.23600
C829        C  0.05174531  0.37746326  0.89506056     0.19420
C830        C  0.05379570  0.35047506  0.86801749     0.24450
C831        C  0.03644204  0.35521895  0.83501345    -0.23540
C832        C  0.51584654  0.38742411  0.83195269     0.19350
F833        F  0.49479863  0.39298077  0.80344765    -0.13500
F834        F  0.49346623  0.44399349  0.85192171    -0.15860
F835        F  0.06947280  0.31802258  0.87575715    -0.15870
F836        F  0.06610389  0.36973787  0.92706570    -0.13500
C837        C  0.44454914  0.37067045  0.60792901     0.24510
C838        C  0.97466296  0.37070000  0.63435122    -0.23600
C839        C  0.00851918  0.37109880  0.61145133     0.19420
C840        C  0.01017692  0.36298767  0.57493987     0.24450
C841        C  0.97981610  0.36134251  0.55332490    -0.23540
C842        C  0.44851540  0.36080131  0.57154234     0.19350
F843        F  0.42003932  0.35127333  0.55335226    -0.13500
F844        F  0.41095982  0.37627070  0.62121078    -0.15860
F845        F  0.04298385  0.35828574  0.55985452    -0.15870
F846        F  0.03968358  0.37833452  0.62705004    -0.13500
C847        C  0.43025178  0.13114560  0.63458157     0.24510
C848        C  0.45191909  0.16083869  0.62385289    -0.23600
C849        C  0.97863113  0.15596865  0.59813686     0.19420
C850        C  0.98862659  0.12150386  0.58869438     0.24450
C851        C  0.46873816  0.09081491  0.60071320    -0.23540
C852        C  0.43860154  0.09639043  0.62297262     0.19350
F853        F  0.41792842  0.06804085  0.63435660    -0.13500
F854        F  0.40299150  0.13535742  0.65861782    -0.15860
F855        F  0.02017166  0.11997435  0.57105132    -0.15870
F856        F  0.99932226  0.18410472  0.58604780    -0.13500
O857        O  0.04875644  0.55002061  0.42428768    -0.87260
C858        C  0.47784552  0.55332998  0.09046453     1.12780
O859        O  0.99096572  0.52093003  0.46004875    -1.35070
O860        O  0.05767300  0.56518940  0.08326999    -0.88750
O861        O  0.01978197  0.02044241  0.38302696    -0.89410
O862        O  0.04426798  0.95069848  0.44253476    -0.78240
O863        O  0.04118172  0.54948690  0.50053443    -1.00320
C864        C  0.05785565  0.94103458  0.04256413     1.22820
O865        O  0.47696383  0.96131664  0.99930035    -1.35220
Mn866      Mn  0.45743387  0.51379962  0.00415716     1.82060
O867        O  0.05993949  0.95702008  0.01350148    -0.77310
O868        O  0.05712353  0.50664376  0.08728586    -0.86710
C869        C  0.42952663  0.48340025  0.07453092     1.13910
C870        C  0.05913745  0.53602050  0.10248464     1.08630
O871        O  0.41023299  0.50886702  0.47597879    -0.78250
O872        O  0.00630409  0.51907475  0.03284653    -1.31940
O873        O  0.43415745  0.97717267  0.43625137    -0.97460
C874        C  0.48373660  0.87581574  0.01408724     1.07340
Mn875      Mn  0.00681164  0.48695282  0.08393231     1.48570
O876        O  0.46161929  0.87696469  0.48862255    -0.86660
Mn877      Mn  0.47401795  0.00028782  0.41187917     1.49560
O878        O  0.48592311  0.59138155  0.42034245    -0.90540
C879        C  0.07215480  0.54471394  0.49331218     1.20540
C880        C  0.45498702  0.58372980  0.41015257     1.12590
Mn881      Mn  0.02703910  0.98700313  0.48656915     1.80970
O882        O  0.45850010  0.96628596  0.07931849    -0.95690
Mn883      Mn  0.01480000  0.56979326  0.46100630     1.49260
C884        C  0.04668825  0.53763842  0.39392257     1.09110
Mn885      Mn  0.47835779  0.93110443  0.04651328     1.49930
C886        C  0.39702394  0.92234637  0.01392468     1.12020
O887        O  0.49179681  0.94816026  0.42353219    -1.01490
O888        O  0.98258770  0.52877936  0.11298446    -0.91150
C889        C  0.02262936  0.93710378  0.42084723     1.23300
O890        O  0.02906416  0.94289680  0.06110864    -1.01880
O891        O  0.98596827  0.54511441  0.05908462    -0.89280
O892        O  0.42106693  0.91934824  0.03784056    -0.88900
O893        O  0.44553902  0.55109800  0.40439705    -0.88910
Mn894      Mn  0.02291655  0.57768913  0.03811786     1.47860
O895        O  0.42565574  0.50399778  0.04773241    -0.77380
C896        C  0.40747470  0.99274775  0.44785458     1.16350
O897        O  0.07767335  0.51533516  0.47860139    -0.76110
O898        O  0.43931287  0.56648029  0.50655186    -0.75730
Mn899      Mn  0.45254428  0.93123728  0.45829678     1.51060
O900        O  0.50473882  0.90053005  0.01105200    -0.88080
O901        O  0.98927122  0.59377482  0.50076255    -0.95610
O902        O  0.40521910  0.92741829  0.48215388    -0.90620
C903        C  0.45710544  0.59502273  0.50746025     1.14140
O904        O  0.03324386  0.69452945  0.32795821    -0.87260
C905        C  0.45793331  0.68955650  0.14848100     1.12780
O906        O  0.48499602  0.74173433  0.28571146    -1.35070
O907        O  0.03490308  0.68236120  0.16889730    -0.88750
O908        O  0.02681782  0.75091778  0.34922764    -0.89410
O909        O  0.05030739  0.80243817  0.29198530    -0.78240
O910        O  0.03132680  0.68138629  0.25114605    -1.00320
C911        C  0.04524433  0.81489363  0.19692433     1.22820
O912        O  0.47492378  0.79849374  0.24103796    -1.35220
Mn913      Mn  0.44716183  0.75337349  0.24677113     1.82060
O914        O  0.05787807  0.79029440  0.21621710    -0.77310
O915        O  0.04686268  0.74077587  0.16479901    -0.86710
C916        C  0.41976749  0.77318576  0.17558327     1.13910
C917        C  0.05179015  0.70936691  0.15412481     1.08630
O918        O  0.40615291  0.77287243  0.27932112    -0.78250
O919        O  0.99159837  0.73671390  0.21529281    -1.31940
O920        O  0.44171085  0.80560664  0.30735114    -0.97460
C921        C  0.97573264  0.88667113  0.17800280     1.07340
Mn922      Mn  0.99694737  0.76244353  0.16459279     1.48570
O923        O  0.47364527  0.87892544  0.21388441    -0.86660
Mn924      Mn  0.47899662  0.77544604  0.32915143     1.49560
O925        O  0.45451954  0.68262869  0.33000121    -0.90540
C926        C  0.06200349  0.69413027  0.24871399     1.20540
C927        C  0.43884632  0.70283539  0.35221349     1.12590
Mn928      Mn  0.02297878  0.76627858  0.25196125     1.80970
O929        O  0.44958487  0.78626020  0.16713396    -0.95690
Mn930      Mn  0.99457526  0.68446360  0.29148639     1.49260
C931        C  0.04368633  0.72056846  0.34613534     1.09110
Mn932      Mn  0.46879824  0.82486835  0.19595118     1.49930
C933        C  0.39899068  0.85380060  0.22858698     1.12020
O934        O  0.49888835  0.81783677  0.30325547    -1.01490
O935        O  0.97558563  0.71788650  0.13855259    -0.91150
C936        C  0.02949396  0.82416924  0.30882851     1.23300
O937        O  0.01647869  0.80912986  0.18219549    -1.01880
O938        O  0.95328545  0.68101742  0.18048346    -0.89280
O939        O  0.41513687  0.84171833  0.20200214    -0.88880
O940        O  0.44667501  0.73608052  0.35626091    -0.88910
Mn941      Mn  0.99565633  0.67986601  0.21369019     1.47860
O942        O  0.41361419  0.76194859  0.20661917    -0.77380
C943        C  0.41223528  0.79154233  0.30562460     1.16350
O944        O  0.06600174  0.72752127  0.25506357    -0.76110
O945        O  0.41785736  0.70857366  0.25308546    -0.75730
Mn946      Mn  0.46350310  0.84141863  0.26892705     1.51060
O947        O  0.47155657  0.86027306  0.16044801    -0.88080
O948        O  0.46023025  0.66980276  0.25475394    -0.95610
O949        O  0.41252161  0.85303768  0.25834268    -0.90620
C950        C  0.42726535  0.67645815  0.25476786     1.14140
O951        O  0.28696526  0.55654585  0.34837696    -0.87260
C952        C  0.30081999  0.48998099  0.16365801     1.12780
O953        O  0.23797000  0.51465051  0.30362145    -1.35070
O954        O  0.30963368  0.56264264  0.18740851    -0.88750
O955        O  0.22801125  0.56360702  0.35973025    -0.89410
O956        O  0.18733440  0.58543934  0.30529347    -0.78240
O957        O  0.30407746  0.55288207  0.27155526    -1.00320
C958        C  0.17982417  0.58985568  0.21441176     1.22820
O959        O  0.17931629  0.51332482  0.25950028    -1.35220
Mn960      Mn  0.22345107  0.47872272  0.26500661     1.82050
O961        O  0.20471178  0.59615197  0.23427030    -0.77310
O962        O  0.25416904  0.58166319  0.17748954    -0.86710
C963        C  0.20638713  0.95705136  0.19391277     1.13910
C964        C  0.28700147  0.58215007  0.16962383     1.08630
O965        O  0.20419164  0.93494420  0.30040431    -0.78250
O966        O  0.24746251  0.52259993  0.23197520    -1.31940
O967        O  0.17655138  0.97013650  0.33414279    -0.97460
C968        C  0.08939209  0.53136687  0.23884801     1.07340
Mn969      Mn  0.22782274  0.53370784  0.18062356     1.48570
O970        O  0.09418555  0.51682812  0.26998503    -0.86660
Mn971      Mn  0.20482254  0.51321819  0.34942280     1.49560
O972        O  0.28388192  0.47372700  0.34399716    -0.90540
C973        C  0.29803868  0.58505570  0.27221584     1.20540
C974        C  0.27561099  0.47912440  0.37568828     1.12590
Mn975      Mn  0.22060113  0.55597899  0.26877243     1.80970
O976        O  0.19933727  0.48926580  0.18630971    -0.95690
Mn977      Mn  0.29363244  0.51670029  0.30999068     1.49260
C978        C  0.25991588  0.57557789  0.35805344     1.09110
Mn979      Mn  0.15810290  0.51439020  0.20722373     1.49930
C980        C  0.12152823  0.94236267  0.23803763     1.12020
O981        O  0.16612051  0.53472717  0.32194251    -1.01490
O982        O  0.27322958  0.50797103  0.15354663    -0.91150
C983        C  0.16424001  0.56742168  0.32338093     1.23300
O984        O  0.18210172  0.56088436  0.19727897    -1.01880
O985        O  0.30386513  0.48118910  0.19562713    -0.89280
O986        O  0.13131524  0.96531160  0.21397006    -0.88880
O987        O  0.24390854  0.98962195  0.38402203    -0.88910
Mn988      Mn  0.30394453  0.52148190  0.23106605     1.47860
O989        O  0.21144762  0.94678591  0.22523302    -0.77380
C990        C  0.18835048  0.93944777  0.32989770     1.16350
O991        O  0.26502342  0.59463165  0.27448883    -0.76110
O992        O  0.26479920  0.94417208  0.26956684    -0.75730
Mn993      Mn  0.14128577  0.99462937  0.29855544     1.51060
O994        O  0.11518957  0.54266129  0.22045868    -0.88080
O995        O  0.30369006  0.48530567  0.27048971    -0.95610
O996        O  0.12592682  0.94715656  0.27142596    -0.90620
C997        C  0.29651836  0.45323773  0.26841880     1.14140
O998        O  0.33642696  0.71952605  0.44612843    -0.87260
C999        C  0.15282262  0.67343806  0.51184269     1.12780
O1000       O  0.28637465  0.74833006  0.50383529    -1.35070
O1001       O  0.18542166  0.68537865  0.44075092    -0.88750
O1002       O  0.35099393  0.77353215  0.46465254    -0.89410
O1003       O  0.28993945  0.81817014  0.44321722    -0.78240
O1004       O  0.26274624  0.69869591  0.45453277    -1.00320
C1005       C  0.19113464  0.82154217  0.44376837     1.22820
O1006       O  0.23398083  0.80252134  0.01636230    -1.35220
Mn1007     Mn  0.24111205  0.75131292  0.04048866     1.82050
O1008       O  0.21737035  0.80264974  0.43421761    -0.77310
O1009       O  0.16952334  0.74346374  0.43299631    -0.86710
C1010       C  0.16414198  0.75256503  0.06013695     1.13910
C1011       C  0.16979816  0.71119320  0.42313737     1.08630
O1012       O  0.26975255  0.76473307  0.08677540    -0.78250
O1013       O  0.21582631  0.73837101  0.49273857    -1.31940
O1014       O  0.30228316  0.80026562  0.05575229    -0.97460
C1015       C  0.20810486  0.89415857  0.50193441     1.07340
Mn1016     Mn  0.16291846  0.75659675  0.48436606     1.48570
O1017       O  0.24073450  0.88200889  0.50488837    -0.86660
Mn1018     Mn  0.32767651  0.78200345  0.01385110     1.49560
O1019       O  0.34166918  0.68863354  0.52003394    -0.90540
C1020       C  0.26468430  0.71004044  0.42443972     1.20540
C1021       C  0.36487289  0.70715509  0.03466946     1.12590
Mn1022     Mn  0.25201109  0.77599363  0.46672951     1.80970
O1023       O  0.16043045  0.77128762  0.03280067    -0.95690
Mn1024     Mn  0.30137346  0.69685242  0.48585550     1.49260
C1025       C  0.35082087  0.75036551  0.44104969     1.09110
Mn1026     Mn  0.17976798  0.82016077  0.02387955     1.49930
C1027       C  0.21235655  0.84808558  0.09148088     1.12020
O1028       O  0.29590718  0.81894958  0.49563357    -1.01490
O1029       O  0.14215228  0.70365012  0.49775113    -0.91150
C1030       C  0.30333360  0.83395266  0.46862256     1.23300
O1031       O  0.17321929  0.81091092  0.47132453    -1.01880
O1032       O  0.18498066  0.66834373  0.51991665    -0.89280
O1033       O  0.18664673  0.83043863  0.07834458    -0.88880
O1034       O  0.36310706  0.74155173  0.03598493    -0.88910
Mn1035     Mn  0.22370060  0.68298746  0.48336876     1.47860
O1036       O  0.19498477  0.74910936  0.07249657    -0.77380
C1037       C  0.29786666  0.78324164  0.08338485     1.16350
O1038       O  0.26381261  0.74421958  0.41988277    -0.76110
O1039       O  0.24777226  0.70190390  0.06385915    -0.75730
Mn1040     Mn  0.27002187  0.83841013  0.03353494     1.51060
O1041       O  0.18702917  0.87383875  0.01699441    -0.88080
O1042       O  0.26466519  0.67358029  0.51802924    -0.95610
O1043       O  0.24354748  0.85044389  0.07819369    -0.90620
C1044       C  0.26315208  0.67551543  0.05071953     1.14140
C1045       C  0.29477589  0.66262675  0.10753164     0.24510
C1046       C  0.27965481  0.64919608  0.07651527    -0.23600
C1047       C  0.27553737  0.61177907  0.07436799     0.19420
C1048       C  0.28325313  0.58875026  0.10372295     0.24450
C1049       C  0.29586372  0.60246900  0.13583026    -0.23540
C1050       C  0.30300701  0.63954737  0.13658925     0.19350
F1051       F  0.31497779  0.65401058  0.16659167    -0.13500
F1052       F  0.30102921  0.69856127  0.11001638    -0.15860
F1053       F  0.27420896  0.55350983  0.10186721    -0.15870
F1054       F  0.26015792  0.59790485  0.04562576    -0.13500
C1055       C  0.19705378  0.89241715  0.17848539     0.24510
C1056       C  0.20487237  0.92891028  0.16794031    -0.23600
C1057       C  0.21445940  0.93746505  0.13290830     0.19420
C1058       C  0.21802922  0.91011835  0.10926686     0.24450
C1059       C  0.20628112  0.87468034  0.11834032    -0.23540
C1060       C  0.19593669  0.86570595  0.15318066     0.19350
F1061       F  0.18744179  0.83107099  0.16304902    -0.13500
F1062       F  0.18889795  0.88295354  0.21280978    -0.15860
F1063       F  0.23558323  0.91784730  0.07796725    -0.15870
F1064       F  0.22304231  0.97175968  0.12197528    -0.13500
C1065       C  0.15425044  0.89099447  0.37090097     0.24510
C1066       C  0.18608385  0.90945104  0.35948406    -0.23600
C1067       C  0.21718718  0.89903348  0.37744111     0.19420
C1068       C  0.21645336  0.87454654  0.40702513     0.24450
C1069       C  0.18546478  0.85525500  0.41867091    -0.23540
C1070       C  0.15455069  0.86311011  0.39873096     0.19350
F1071       F  0.12552922  0.84213684  0.40477473    -0.13500
F1072       F  0.12344610  0.89816545  0.35360409    -0.15860
F1073       F  0.24759848  0.86805974  0.42333125    -0.15870
F1074       F  0.24934316  0.91133374  0.36536829    -0.13500
C1075       C  0.29311954  0.61962773  0.39236027     0.24510
C1076       C  0.26599371  0.61307502  0.36879904    -0.23600
C1077       C  0.24442290  0.64247824  0.35665774     0.19420
C1078       C  0.24765697  0.67695628  0.37079674     0.24450
C1079       C  0.27166624  0.68211895  0.39795099    -0.23540
C1080       C  0.29536119  0.65323917  0.40748217     0.19350
F1081       F  0.31828111  0.65587869  0.43451749    -0.13500
F1082       F  0.31531028  0.59245779  0.40360173    -0.15860
F1083       F  0.22501388  0.70406208  0.36048808    -0.15870
F1084       F  0.21974168  0.63794759  0.33165247    -0.13500
C1085       C  0.36473776  0.59615809  0.28113381     0.24510
C1086       C  0.33061110  0.60948602  0.26994845    -0.23600
C1087       C  0.33008399  0.64290552  0.25137941     0.19420
C1088       C  0.36201895  0.66227167  0.24421282     0.24450
C1089       C  0.39605820  0.64998336  0.25668253    -0.23540
C1090       C  0.39677745  0.61614493  0.27485270     0.19350
F1091       F  0.42802533  0.60308636  0.28800471    -0.13500
F1092       F  0.36712826  0.56357631  0.29878774    -0.15860
F1093       F  0.35941971  0.69352894  0.22442957    -0.15870
F1094       F  0.29874250  0.65632344  0.23873367    -0.13500
C1095       C  0.35624445  0.93745920  0.24501066     0.24510
C1096       C  0.32287556  0.92606094  0.25824058    -0.23600
C1097       C  0.31264088  0.88950974  0.25532412     0.19420
C1098       C  0.33588995  0.86500287  0.23948534     0.24450
C1099       C  0.36854336  0.87714290  0.22517030    -0.23540
C1100       C  0.37755361  0.91393701  0.22591380     0.19350
F1101       F  0.41008769  0.92555488  0.21353466    -0.13500
F1102       F  0.36874681  0.97090620  0.25169745    -0.15860
F1103       F  0.32820260  0.82908433  0.24107114    -0.15870
F1104       F  0.28100716  0.87710132  0.26926917    -0.13500
C1105       C  0.12193427  0.67887956  0.21498315     0.24510
C1106       C  0.09334520  0.66935036  0.23894394    -0.23600
C1107       C  0.09391985  0.63404852  0.25323425     0.19420
C1108       C  0.12223587  0.61005233  0.24571642     0.24450
C1109       C  0.14767639  0.61614552  0.21792788    -0.23540
C1110       C  0.14843543  0.65256444  0.20441836     0.19350
F1111       F  0.17553668  0.66314422  0.18191962    -0.13500
F1112       F  0.12388769  0.71322915  0.20111206    -0.15860
F1113       F  0.12648593  0.58197668  0.26858973    -0.15870
F1114       F  0.06731722  0.62286440  0.27609723    -0.13500
C1115       C  0.05217677  0.86902779  0.23260458     0.24510
C1116       C  0.06085785  0.85151871  0.20121898    -0.23600
C1117       C  0.08998360  0.86492757  0.18078528     0.19420
C1118       C  0.10786518  0.89624604  0.19114847     0.24450
C1119       C  0.10218268  0.91000452  0.22557482    -0.23540
C1120       C  0.07341727  0.89618734  0.24576394     0.19350
F1121       F  0.06393628  0.91129999  0.27686407    -0.13500
F1122       F  0.02248750  0.85953538  0.25065653    -0.15860
F1123       F  0.12903161  0.91396067  0.16683386    -0.15870
F1124       F  0.10053691  0.84846541  0.15061728    -0.13500
C1125       C  0.35291448  0.76989894  0.16652495     0.24510
C1126       C  0.38828889  0.77579327  0.15256385    -0.23600
C1127       C  0.39278565  0.78475384  0.11682562     0.19420
C1128       C  0.36313192  0.78924318  0.09574869     0.24450
C1129       C  0.32792474  0.78185959  0.10863040    -0.23540
C1130       C  0.32319839  0.77202747  0.14448509     0.19350
F1131       F  0.28994324  0.76543558  0.15839978    -0.13500
F1132       F  0.34669875  0.76258650  0.20159573    -0.15860
F1133       F  0.36966916  0.79990007  0.06195560    -0.15870
F1134       F  0.42603409  0.78851603  0.10188680    -0.13500
C1135       C  0.09827668  0.74994554  0.07508569     0.24510
C1136       C  0.13282652  0.73530619  0.07901663    -0.23600
C1137       C  0.13689896  0.70350616  0.10072512     0.19420
C1138       C  0.10776960  0.68954095  0.12118085     0.24450
C1139       C  0.07498952  0.70817106  0.12165605    -0.23540
C1140       C  0.06975499  0.73647271  0.09604215     0.19350
F1141       F  0.03760233  0.75393493  0.09422206    -0.13500
F1142       F  0.09249507  0.77925548  0.05314573    -0.15860
F1143       F  0.11182166  0.65880056  0.14128587    -0.15870
F1144       F  0.16913622  0.68631204  0.10257833    -0.13500
C1145       C  0.13989940  0.73429535  0.36941036     0.24510
C1146       C  0.14600887  0.70490417  0.39343770    -0.23600
C1147       C  0.12021347  0.67756787  0.39707351     0.19420
C1148       C  0.08640926  0.68292497  0.38226282     0.24450
C1149       C  0.07872075  0.71506660  0.36255814    -0.23540
C1150       C  0.10646543  0.73944444  0.35437285     0.19350
F1151       F  0.10123143  0.76841685  0.33198352    -0.13500
F1152       F  0.16522685  0.76015061  0.36351614    -0.15860
F1153       F  0.06071720  0.65754065  0.38840293    -0.15870
F1154       F  0.12666044  0.64725113  0.41729464    -0.13500
C1155       C  0.38677124  0.79338715  0.40175777     0.24510
C1156       C  0.36538135  0.76206977  0.40561924    -0.23600
C1157       C  0.35414721  0.74558221  0.37483787     0.19420
C1158       C  0.36530248  0.75858912  0.34134309     0.24450
C1159       C  0.38916068  0.78786201  0.33779626    -0.23540
C1160       C  0.39818846  0.80629862  0.36826523     0.19350
F1161       F  0.42019597  0.83542782  0.36591654    -0.13500
F1162       F  0.39798786  0.81096294  0.43042051    -0.15860
F1163       F  0.35527565  0.74016380  0.31270526    -0.15870
F1164       F  0.33363066  0.71570324  0.37681431    -0.13500
C1165       C  0.33421022  0.92506997  0.49356040     0.24510
C1166       C  0.35872979  0.91301534  0.01987537    -0.23600
C1167       C  0.35674014  0.87686744  0.02751243     0.19420
C1168       C  0.35522432  0.85443291  0.99862170     0.24450
C1169       C  0.33012914  0.86325322  0.47184439    -0.23540
C1170       C  0.31880030  0.90002745  0.47056240     0.19350
F1171       F  0.29158900  0.91112570  0.44970329    -0.13500
F1172       F  0.32352231  0.96015840  0.49223675    -0.15860
F1173       F  0.37212762  0.82211594  0.00040352    -0.15870
F1174       F  0.35665614  0.86476677  0.06172662    -0.13500
C1175       C  0.42971685  0.69246497  0.52882926     0.24510
C1176       C  0.39636982  0.68580435  0.04603979    -0.23600
C1177       C  0.38910360  0.65033310  0.05834237     0.19420
C1178       C  0.40839106  0.62135816  0.04512040     0.24450
C1179       C  0.43909751  0.62716874  0.02334599    -0.23540
C1180       C  0.45195460  0.66318918  0.51899089     0.19350
F1181       F  0.48501746  0.67013557  0.50477356    -0.13500
F1182       F  0.43889642  0.72674873  0.51833554    -0.15860
F1183       F  0.39651604  0.58742616  0.05383559    -0.15870
F1184       F  0.35916691  0.64309179  0.07788835    -0.13500
C1185       C  0.15788331  0.92507995  0.04657365     0.24510
C1186       C  0.16604964  0.89797656  0.01982248    -0.23600
C1187       C  0.13120753  0.89078437  0.50127596     0.19420
C1188       C  0.09743039  0.89489907  0.01748719     0.24450
C1189       C  0.09125112  0.91757870  0.04654233    -0.23540
C1190       C  0.12253581  0.93269978  0.06036345     0.19350
F1191       F  0.11867477  0.95967751  0.08372341    -0.13500
F1192       F  0.18362468  0.94884524  0.05425051    -0.15860
F1193       F  0.06946482  0.88267911  0.49925474    -0.15870
F1194       F  0.13267173  0.87445126  0.46989037    -0.13500
C1195       C  0.14130865  0.60748165  0.02743231     0.24510
C1196       C  0.12963715  0.64115427  0.51214155    -0.23600
C1197       C  0.09990396  0.64162337  0.49026906     0.19420
C1198       C  0.08442867  0.60942625  0.48098233     0.24450
C1199       C  0.09637427  0.57569419  0.49518971    -0.23540
C1200       C  0.12448312  0.57502095  0.01934934     0.19350
F1201       F  0.13459932  0.54344360  0.03590247    -0.13500
F1202       F  0.16895199  0.60600602  0.05017314    -0.15860
F1203       F  0.05725688  0.61174150  0.45793729    -0.15870
F1204       F  0.08671650  0.67315023  0.47595355    -0.13500
C1205       C  0.30985050  0.50547713  0.42429579     0.24510
C1206       C  0.30499085  0.97741583  0.40097525    -0.23600
C1207       C  0.33377250  0.95349851  0.39438612     0.19420
C1208       C  0.36691375  0.95866076  0.40943740     0.24450
C1209       C  0.37224425  0.98804018  0.43149513    -0.23540
C1210       C  0.34339647  0.51091941  0.43905979     0.19350
F1211       F  0.34742236  0.53914512  0.46071568    -0.13500
F1212       F  0.28268361  0.52910367  0.43117889    -0.15860
F1213       F  0.39377737  0.93474135  0.40222809    -0.15870
F1214       F  0.33010268  0.92564334  0.37216152    -0.13500
C1215       C  0.14102590  0.55701695  0.38194285     0.24510
C1216       C  0.14199604  0.58135388  0.35243954    -0.23600
C1217       C  0.10950505  0.59670487  0.34230698     0.19420
C1218       C  0.07738710  0.57869554  0.35118327     0.24450
C1219       C  0.07820298  0.54651387  0.37244090    -0.23540
C1220       C  0.11068154  0.53609484  0.38801310     0.19350
F1221       F  0.11195282  0.00760329  0.41186134    -0.13500
F1222       F  0.17161510  0.54657351  0.39815215    -0.15860
F1223       F  0.04560699  0.59423588  0.34224911    -0.15870
F1224       F  0.10952587  0.62966382  0.32554303    -0.13500
C1225       C  0.05150106  0.56732095  0.16171109     0.24510
C1226       C  0.05605193  0.53545129  0.14256143    -0.23600
C1227       C  0.05308372  0.50205860  0.16229404     0.19420
C1228       C  0.05076497  0.50114794  0.19966181     0.24450
C1229       C  0.05561584  0.53273951  0.21858311    -0.23540
C1230       C  0.04920027  0.56560519  0.19913179     0.19350
F1231       F  0.04456960  0.59676707  0.21641747    -0.13500
F1232       F  0.04969523  0.60017830  0.14454269    -0.15860
F1233       F  0.04915768  0.96888856  0.21739582    -0.15870
F1234       F  0.05305518  0.97012250  0.14575960    -0.13500
C1235       C  0.33108243  0.48217513  0.10350763     0.24510
C1236       C  0.33313329  0.48441299  0.14027872    -0.23600
C1237       C  0.36764633  0.48512924  0.15518837     0.19420
C1238       C  0.39895498  0.48074615  0.13454748     0.24450
C1239       C  0.39695352  0.47932880  0.09780084    -0.23540
C1240       C  0.36255861  0.48111333  0.08249059     0.19350
F1241       F  0.35933458  0.48422609  0.04686552    -0.13500
F1242       F  0.29881391  0.48273708  0.08769618    -0.15860
F1243       F  0.43126494  0.48225387  0.15012428    -0.15870
F1244       F  0.37149301  0.49453569  0.18913358    -0.13500
C1245       C  0.40593996  0.61873646  0.37807377     0.24510
C1246       C  0.43128434  0.61580550  0.40479789    -0.23600
C1247       C  0.43919020  0.64739277  0.42333529     0.19420
C1248       C  0.42761394  0.68133509  0.41131836     0.24450
C1249       C  0.41412042  0.68406094  0.37741079    -0.23540
C1250       C  0.39629432  0.65355763  0.36502754     0.19350
F1251       F  0.37591747  0.65725923  0.33593213    -0.13500
F1252       F  0.39453060  0.58889162  0.36187683    -0.15860
F1253       F  0.44072375  0.71115185  0.42653266    -0.15870
F1254       F  0.96274498  0.64639413  0.44900956    -0.13500
C1255       C  0.51404259  0.91427293  0.35813100     0.24510
C1256       C  0.03172910  0.91011030  0.39085278    -0.23600
C1257       C  0.05146488  0.87713857  0.39533982     0.19420
C1258       C  0.05367050  0.85022151  0.36823589     0.24450
C1259       C  0.03639331  0.85500840  0.33519574    -0.23540
C1260       C  0.51565494  0.88759851  0.33182247     0.19350
F1261       F  0.49460659  0.89319398  0.30332265    -0.13500
F1262       F  0.49306887  0.94399895  0.35201088    -0.15860
F1263       F  0.06945944  0.81780661  0.37592610    -0.15870
F1264       F  0.06583313  0.86936499  0.42733243    -0.13500
C1265       C  0.44300406  0.86998696  0.10862874     0.24510
C1266       C  0.97472918  0.87072904  0.13444545    -0.23600
C1267       C  0.00857190  0.87113684  0.11152441     0.19420
C1268       C  0.01021347  0.86303660  0.07500735     0.24450
C1269       C  0.97984211  0.86138107  0.05340814    -0.23540
C1270       C  0.44710345  0.86051554  0.07214252     0.19350
F1271       F  0.41874101  0.85041789  0.05407146    -0.13500
F1272       F  0.40931237  0.87402004  0.12227599    -0.15860
F1273       F  0.04301353  0.85834805  0.05990076    -0.15870
F1274       F  0.03974243  0.87837888  0.12710622    -0.13500
C1275       C  0.43010515  0.63119241  0.13441674     0.24510
C1276       C  0.45181052  0.66086760  0.12372954    -0.23600
C1277       C  0.97869076  0.65627672  0.09800577     0.19420
C1278       C  0.98856931  0.62179324  0.08851443     0.24450
C1279       C  0.46860627  0.59085331  0.10057862    -0.23540
C1280       C  0.43843618  0.59644045  0.12279023     0.19350
F1281       F  0.41772273  0.56810259  0.13412286    -0.13500
F1282       F  0.40283121  0.63541508  0.15843475    -0.15860
F1283       F  0.02008987  0.62014439  0.07082934    -0.15870
F1284       F  0.99951367  0.68435252  0.08601562    -0.13500
O1285       O  0.04895617  0.54906679  0.92461588    -0.87260
C1286       C  0.47768820  0.55360358  0.59034531     1.12780
O1287       O  0.99110300  0.52080260  0.96002546    -1.35070
O1288       O  0.05798064  0.56517081  0.58316907    -0.88750
O1289       O  0.01975412  0.02044215  0.88300138    -0.89410
O1290       O  0.04424247  0.95067097  0.94252970    -0.78240
O1291       O  0.04119959  0.54937657  0.00062666    -1.00320
C1292       C  0.05786263  0.94101327  0.54255279     1.22820
O1293       O  0.47697163  0.96127864  0.49930427    -1.35220
Mn1294     Mn  0.45745150  0.51382585  0.50402711     1.82060
O1295       O  0.05995758  0.95702797  0.51350466    -0.77310
O1296       O  0.05740012  0.50663828  0.58727484    -0.86710
C1297       C  0.42925042  0.48373842  0.57438848     1.13910
C1298       C  0.05930486  0.53604767  0.60245594     1.08630
O1299       O  0.41012468  0.50906038  0.97609538    -0.78250
O1300       O  0.00641750  0.51903311  0.53286800    -1.31940
O1301       O  0.43413415  0.97724098  0.93626835    -0.97460
C1302       C  0.48379664  0.87579246  0.51409778     1.07340
Mn1303     Mn  0.00716680  0.48671376  0.58385274     1.48570
O1304       O  0.46151879  0.87703042  0.98864814    -0.86660
Mn1305     Mn  0.47401464  0.00030935  0.91189735     1.49560
O1306       O  0.48573063  0.59153772  0.92056584    -0.90540
C1307       C  0.07221367  0.54455540  0.99356985     1.20540
C1308       C  0.45498047  0.58371625  0.91002400     1.12590
Mn1309     Mn  0.02702408  0.98698343  0.98656050     1.80970
O1310       O  0.45847334  0.96633041  0.57933599    -0.95690
Mn1311     Mn  0.01500929  0.56957445  0.96090853     1.49260
C1312       C  0.04647845  0.53787996  0.89382994     1.09110
Mn1313     Mn  0.47833226  0.93112485  0.54655442     1.49930
C1314       C  0.39704089  0.92231392  0.51389595     1.12020
O1315       O  0.49176262  0.94817107  0.92355625    -1.01490
O1316       O  0.98278768  0.52833458  0.61309984    -0.91150
C1317       C  0.02260462  0.93709184  0.92083283     1.23300
O1318       O  0.02906643  0.94285978  0.56109078    -1.01880
O1319       O  0.98629794  0.54482145  0.55924811    -0.89280
O1320       O  0.42105391  0.91938760  0.53784562    -0.88900
O1321       O  0.44577620  0.55106432  0.90405898    -0.88910
Mn1322     Mn  0.02298479  0.57763748  0.53820796     1.47860
O1323       O  0.42548459  0.50421442  0.54749683    -0.77380
C1324       C  0.40745770  0.99282737  0.94787248     1.16350
O1325       O  0.07780756  0.51510086  0.97902959    -0.76110
O1326       O  0.43922819  0.56637078  0.00692025    -0.75730
Mn1327     Mn  0.45248891  0.93130006  0.95831440     1.51060
O1328       O  0.50472491  0.90056829  0.51111271    -0.88080
O1329       O  0.98941199  0.59386126  0.00045115    -0.95610
O1330       O  0.40516912  0.92754476  0.98218945    -0.90620
C1331       C  0.45700363  0.59491555  0.00774358     1.14140
O1332       O  0.03324291  0.69465143  0.82802193    -0.87260
C1333       C  0.45797043  0.68972885  0.64839872     1.12780
O1334       O  0.48498921  0.74166896  0.78570901    -1.35070
O1335       O  0.03487312  0.68224911  0.66895690    -0.88750
O1336       O  0.02689463  0.75108999  0.84918345    -0.89410
O1337       O  0.05034893  0.80248762  0.79190781    -0.78240
O1338       O  0.03130557  0.68140173  0.75123236    -1.00320
C1339       C  0.04523203  0.81484415  0.69683336     1.22820
O1340       O  0.47495134  0.79847041  0.74106350    -1.35220
Mn1341     Mn  0.44717427  0.75335484  0.74676289     1.82060
O1342       O  0.05787013  0.79025424  0.71613510    -0.77310
O1343       O  0.04681634  0.74065897  0.66480593    -0.86710
C1344       C  0.41981309  0.77323455  0.67558152     1.13910
C1345       C  0.05175432  0.70924836  0.65414944     1.08630
O1346       O  0.40615560  0.77284886  0.77930836    -0.78250
O1347       O  0.99157354  0.73667451  0.71531648    -1.31940
O1348       O  0.44172677  0.80555762  0.80734752    -0.97460
C1349       C  0.97573736  0.88662425  0.67788712     1.07340
Mn1350     Mn  0.99690067  0.76231531  0.66457792     1.48570
O1351       O  0.47373430  0.87891163  0.71389649    -0.86660
Mn1352     Mn  0.47895368  0.77533794  0.82917587     1.49560
O1353       O  0.45451919  0.68251144  0.82992668    -0.90540
C1354       C  0.06198142  0.69414271  0.74875232     1.20540
C1355       C  0.43878556  0.70269611  0.85211488     1.12590
Mn1356     Mn  0.02297843  0.76629367  0.75193027     1.80970
O1357       O  0.44963597  0.78631012  0.66714736    -0.95690
Mn1358     Mn  0.99456278  0.68454436  0.79158803     1.49260
C1359       C  0.04372717  0.72071491  0.84613960     1.09110
Mn1360     Mn  0.46884825  0.82488534  0.69599153     1.49930
C1361       C  0.39904572  0.85382803  0.72862864     1.12020
O1362       O  0.49885818  0.81776358  0.80334219    -1.01490
O1363       O  0.97550912  0.71764883  0.63862902    -0.91150
C1364       C  0.02953980  0.82424453  0.80872172     1.23300
O1365       O  0.01646253  0.80905572  0.68210688    -1.01880
O1366       O  0.95322127  0.68088566  0.68064272    -0.89280
O1367       O  0.41518999  0.84175458  0.70203741    -0.88880
O1368       O  0.44658412  0.73594370  0.85619842    -0.88910
Mn1369     Mn  0.99562724  0.67981384  0.71379629     1.47860
O1370       O  0.41365151  0.76197216  0.70660669    -0.77380
C1371       C  0.41224125  0.79151449  0.80561403     1.16350
O1372       O  0.06599180  0.72753939  0.75506130    -0.76110
O1373       O  0.41785447  0.70855329  0.75303553    -0.75730
Mn1374     Mn  0.46356173  0.84139275  0.76894311     1.51060
O1375       O  0.47161257  0.86026368  0.66045865    -0.88080
O1376       O  0.46022072  0.66977254  0.75468082    -0.95610
O1377       O  0.41257595  0.85304013  0.75838577    -0.90620
C1378       C  0.42725480  0.67643344  0.75469762     1.14140
O1379       O  0.28688417  0.55652939  0.84834966    -0.87260
C1380       C  0.30064144  0.49006078  0.66356381     1.12780
O1381       O  0.23789733  0.51462069  0.80356960    -1.35070
O1382       O  0.30957308  0.56265526  0.68738966    -0.88750
O1383       O  0.22792146  0.56359807  0.85968702    -0.89410
O1384       O  0.18728850  0.58543190  0.80520734    -0.78240
O1385       O  0.30401914  0.55285696  0.77151724    -1.00320
C1386       C  0.17978223  0.58990375  0.71439414     1.22820
O1387       O  0.17923763  0.51332853  0.75942490    -1.35220
Mn1388     Mn  0.22337801  0.47868593  0.76494499     1.82050
O1389       O  0.20468019  0.59617546  0.73424587    -0.77310
O1390       O  0.25411658  0.58171630  0.67748617    -0.86710
C1391       C  0.20636114  0.95707886  0.69391459     1.13910
C1392       C  0.28695212  0.58218444  0.66961732     1.08630
O1393       O  0.20419749  0.93495451  0.80041368    -0.78250
O1394       O  0.24738941  0.52259049  0.73192882    -1.31940
O1395       O  0.17655583  0.97014650  0.83415178    -0.97460
C1396       C  0.08927112  0.53147761  0.73874426     1.07340
Mn1397     Mn  0.22772861  0.53377231  0.68060245     1.48570
O1398       O  0.09410035  0.51689574  0.76986068    -0.86660
Mn1399     Mn  0.20471450  0.51321529  0.84935489     1.49560
O1400       O  0.28386243  0.47372357  0.84401319    -0.90540
C1401       C  0.29799703  0.58503279  0.77217423     1.20540
C1402       C  0.27553241  0.47915100  0.87569191     1.12590
Mn1403     Mn  0.22054760  0.55596624  0.76872261     1.80970
O1404       O  0.19923038  0.48933318  0.68626344    -0.95690
Mn1405     Mn  0.29356486  0.51668198  0.80996048     1.49260
C1406       C  0.25983468  0.57555819  0.85803787     1.09110
Mn1407     Mn  0.15800724  0.51447309  0.70713392     1.49930
C1408       C  0.12151504  0.94235349  0.73801835     1.12020
O1409       O  0.16598500  0.53474461  0.82187954    -1.01490
O1410       O  0.27306470  0.50807716  0.65351382    -0.91150
C1411       C  0.16414147  0.56746089  0.82326696     1.23300
O1412       O  0.18203939  0.56094473  0.69725759    -1.01880
O1413       O  0.30374115  0.48121503  0.69552102    -0.89280
O1414       O  0.13128016  0.96533205  0.71396646    -0.88880
O1415       O  0.24389580  0.98966986  0.88403993    -0.88910
Mn1416     Mn  0.30387086  0.52147609  0.73101436     1.47860
O1417       O  0.21143607  0.94681137  0.72523305    -0.77380
C1418       C  0.18835989  0.93945848  0.82990930     1.16350
O1419       O  0.26498343  0.59461464  0.77445216    -0.76110
O1420       O  0.26480476  0.94419047  0.76956249    -0.75730
Mn1421     Mn  0.14127928  0.99461704  0.79856171     1.51060
O1422       O  0.11505385  0.54273224  0.72030028    -0.88080
O1423       O  0.30361396  0.48530154  0.77043573    -0.95610
O1424       O  0.12592790  0.94713037  0.77141160    -0.90620
C1425       C  0.29649576  0.45322789  0.76833446     1.14140
O1426       O  0.33645653  0.71950769  0.94614728    -0.87260
C1427       C  0.15283748  0.67338342  0.01180950     1.12780
O1428       O  0.28637240  0.74831897  0.00382782    -1.35070
O1429       O  0.18544983  0.68536178  0.94070867    -0.88750
O1430       O  0.35098527  0.77353420  0.96465192    -0.89410
O1431       O  0.28993711  0.81818011  0.94322511    -0.78240
O1432       O  0.26276984  0.69868377  0.95451717    -1.00320
C1433       C  0.19112978  0.82152479  0.94375261     1.22820
O1434       O  0.23399020  0.80253243  0.51637511    -1.35220
Mn1435     Mn  0.24112149  0.75132833  0.54050776     1.82050
O1436       O  0.21737352  0.80264261  0.93420219    -0.77310
O1437       O  0.16953423  0.74344386  0.93297094    -0.86710
C1438       C  0.16413509  0.75257963  0.56017284     1.13910
C1439       C  0.16982975  0.71118054  0.92309644     1.08630
O1440       O  0.26978125  0.76475408  0.58678562    -0.78250
O1441       O  0.21582991  0.73835122  0.99271383    -1.31940
O1442       O  0.30230638  0.80028383  0.55574996    -0.97460
C1443       C  0.20808664  0.89415492  0.00194781     1.07340
Mn1444     Mn  0.16291902  0.75656092  0.98433680     1.48570
O1445       O  0.24071860  0.88201728  0.00492249    -0.86660
Mn1446     Mn  0.32768835  0.78200872  0.51384873     1.49560
O1447       O  0.34166643  0.68860897  0.02006181    -0.90540
C1448       C  0.26470770  0.71003237  0.92442402     1.20540
C1449       C  0.36488815  0.70716748  0.53463698     1.12590
Mn1450     Mn  0.25201355  0.77598598  0.96671811     1.80970
O1451       O  0.16042054  0.77131383  0.53283851    -0.95690
Mn1452     Mn  0.30138498  0.69683592  0.98585963     1.49260
C1453       C  0.35083478  0.75035479  0.94105924     1.09110
Mn1454     Mn  0.17978336  0.82018349  0.52390418     1.49930
C1455       C  0.21239316  0.84811713  0.59148037     1.12020
O1456       O  0.29589720  0.81895529  0.99564402    -1.01490
O1457       O  0.14214932  0.70359122  0.99771492    -0.91150
C1458       C  0.30332024  0.83396590  0.96863594     1.23300
O1459       O  0.17321274  0.81088197  0.97130272    -1.01880
O1460       O  0.18499763  0.66831286  0.01988174    -0.89280
O1461       O  0.18668428  0.83045294  0.57836426    -0.88880
O1462       O  0.36312350  0.74156227  0.53597963    -0.88910
Mn1463     Mn  0.22371705  0.68296812  0.98334154     1.47860
O1464       O  0.19498509  0.74911948  0.57252240    -0.77380
C1465       C  0.29789587  0.78326389  0.58338623     1.16350
O1466       O  0.26382874  0.74421298  0.91986991    -0.76110
O1467       O  0.24779974  0.70192059  0.56388099    -0.75730
Mn1468     Mn  0.27004202  0.83842214  0.53351996     1.51060
O1469       O  0.18705506  0.87386486  0.51702033    -0.88080
O1470       O  0.26466549  0.67355694  0.01802110    -0.95610
O1471       O  0.24357570  0.85048829  0.57817419    -0.90620
C1472       C  0.26317484  0.67553680  0.55072665     1.14140
C1473       C  0.29487111  0.66263038  0.60749384     0.24510
C1474       C  0.27969731  0.64921294  0.57649812    -0.23600
C1475       C  0.27552823  0.61180389  0.57435940     0.19420
C1476       C  0.28321272  0.58877538  0.60371729     0.24450
C1477       C  0.29583742  0.60248600  0.63582082    -0.23540
C1478       C  0.30306333  0.63954871  0.63656206     0.19350
F1479       F  0.31506218  0.65400086  0.66655892    -0.13500
F1480       F  0.30118088  0.69855681  0.60995839    -0.15860
F1481       F  0.27412054  0.55355071  0.60186356    -0.15870
F1482       F  0.26012298  0.59794237  0.54562489    -0.13500
C1483       C  0.19706885  0.89243962  0.67848417     0.24510
C1484       C  0.20486435  0.92893829  0.66793976    -0.23600
C1485       C  0.21445327  0.93749819  0.63290855     0.19420
C1486       C  0.21804722  0.91015225  0.60926843     0.24450
C1487       C  0.20631851  0.87470803  0.61834167    -0.23540
C1488       C  0.19597195  0.86572789  0.65317941     0.19350
F1489       F  0.18749120  0.83108840  0.66304463    -0.13500
F1490       F  0.18891167  0.88297077  0.71280692    -0.15860
F1491       F  0.23559677  0.91789128  0.57796844    -0.15870
F1492       F  0.22301039  0.97179912  0.62197451    -0.13500
C1493       C  0.15425592  0.89098930  0.87089318     0.24510
C1494       C  0.18608848  0.90945884  0.85949448    -0.23600
C1495       C  0.21718507  0.89905098  0.87746854     0.19420
C1496       C  0.21644450  0.87455528  0.90704637     0.24450
C1497       C  0.18545853  0.85524746  0.91866925    -0.23540
C1498       C  0.15455097  0.86310024  0.89871950     0.19350
F1499       F  0.12553079  0.84212274  0.90475333    -0.13500
F1500       F  0.12345811  0.89815483  0.85358349    -0.15860
F1501       F  0.24758100  0.86807798  0.92337156    -0.15870
F1502       F  0.24934207  0.91137055  0.86541911    -0.13500
C1503       C  0.29307402  0.61959837  0.89234574     0.24510
C1504       C  0.26592398  0.61305004  0.86880594    -0.23600
C1505       C  0.24436098  0.64246187  0.85667444     0.19420
C1506       C  0.24763267  0.67694612  0.87079389     0.24450
C1507       C  0.27166658  0.68210836  0.89792851    -0.23540
C1508       C  0.29534932  0.65321683  0.90745315     0.19350
F1509       F  0.31829663  0.65586037  0.93446597    -0.13500
F1510       F  0.31526723  0.59242486  0.90357192    -0.15860
F1511       F  0.22500715  0.70406450  0.86048115    -0.15870
F1512       F  0.21965367  0.63793272  0.83169312    -0.13500
C1513       C  0.36472413  0.59610317  0.78100716     0.24510
C1514       C  0.33058428  0.60945452  0.76988083    -0.23600
C1515       C  0.33005046  0.64289818  0.75135220     0.19420
C1516       C  0.36198543  0.66226962  0.74418322     0.24450
C1517       C  0.39603790  0.64995991  0.75660350    -0.23540
C1518       C  0.39676616  0.61609061  0.77471855     0.19350
F1519       F  0.42802221  0.60301345  0.78783581    -0.13500
F1520       F  0.36712503  0.56350009  0.79862001    -0.15860
F1521       F  0.35937148  0.69355449  0.72444538    -0.15870
F1522       F  0.29870089  0.65633770  0.73874606    -0.13500
C1523       C  0.35626186  0.93749848  0.74502361     0.24510
C1524       C  0.32289317  0.92609233  0.75825359    -0.23600
C1525       C  0.31267425  0.88953487  0.75534488     0.19420
C1526       C  0.33593999  0.86502844  0.73952637     0.24450
C1527       C  0.36859609  0.87717250  0.72522225    -0.23540
C1528       C  0.37759448  0.91396975  0.72595562     0.19350
F1529       F  0.41012817  0.92559263  0.71357863    -0.13500
F1530       F  0.36874288  0.97095976  0.75168454    -0.15860
F1531       F  0.32826113  0.82910784  0.74111482    -0.15870
F1532       F  0.28103805  0.87711999  0.76927747    -0.13500
C1533       C  0.12190304  0.67891638  0.71499861     0.24510
C1534       C  0.09330753  0.66936285  0.73894505    -0.23600
C1535       C  0.09386679  0.63404224  0.75318949     0.19420
C1536       C  0.12218649  0.61006126  0.74566430     0.24450
C1537       C  0.14764702  0.61619210  0.71791084    -0.23540
C1538       C  0.14841379  0.65261674  0.70442862     0.19350
F1539       F  0.17552157  0.66321012  0.68194339    -0.13500
F1540       F  0.12385211  0.71327225  0.70114385    -0.15860
F1541       F  0.12642387  0.58195763  0.76850190    -0.15870
F1542       F  0.06727434  0.62283724  0.77605344    -0.13500
C1543       C  0.05215729  0.86900503  0.73251292     0.24510
C1544       C  0.06084643  0.85148794  0.70113129    -0.23600
C1545       C  0.08999366  0.86490154  0.68072333     0.19420
C1546       C  0.10787327  0.89622414  0.69110359     0.24450
C1547       C  0.10217780  0.90998319  0.72553048    -0.23540
C1548       C  0.07339853  0.89615979  0.74569337     0.19350
F1549       F  0.06390021  0.91127172  0.77678757    -0.13500
F1550       F  0.02245117  0.85953297  0.75054031    -0.15860
F1551       F  0.12904738  0.91394532  0.66680125    -0.15870
F1552       F  0.10056922  0.84844353  0.65055992    -0.13500
C1553       C  0.35295890  0.76994778  0.66652246     0.24510
C1554       C  0.38833246  0.77585599  0.65256191    -0.23600
C1555       C  0.39282453  0.78481755  0.61682409     0.19420
C1556       C  0.36316800  0.78928232  0.59574417     0.24450
C1557       C  0.32796140  0.78189056  0.60862777    -0.23540
C1558       C  0.32324124  0.77206224  0.64448365     0.19350
F1559       F  0.28998999  0.76545364  0.65840002    -0.13500
F1560       F  0.34674478  0.76262952  0.70159258    -0.15860
F1561       F  0.36970418  0.79991825  0.56194596    -0.15870
F1562       F  0.42607188  0.78859225  0.60188670    -0.13500
C1563       C  0.09825095  0.74988945  0.57512178     0.24510
C1564       C  0.13281806  0.73529002  0.57905603    -0.23600
C1565       C  0.13690516  0.70348555  0.60076013     0.19420
C1566       C  0.10777713  0.68947890  0.62120237     0.24450
C1567       C  0.07496900  0.70806298  0.62167165    -0.23540
C1568       C  0.06972677  0.73636913  0.59605827     0.19350
F1569       F  0.03755415  0.75379046  0.59421940    -0.13500
F1570       F  0.09244827  0.77920117  0.55319022    -0.15860
F1571       F  0.11185186  0.65872810  0.64128623    -0.15870
F1572       F  0.16915572  0.68631827  0.60261556    -0.13500
C1573       C  0.13997714  0.73431428  0.86935857     0.24510
C1574       C  0.14606067  0.70490878  0.89337847    -0.23600
C1575       C  0.12022895  0.67761232  0.89702373     0.19420
C1576       C  0.08641229  0.68303848  0.88226365     0.24450
C1577       C  0.07876009  0.71518746  0.86255576    -0.23540
C1578       C  0.10653881  0.73951645  0.85434141     0.19350
F1579       F  0.10133334  0.76849228  0.83194825    -0.13500
F1580       F  0.16533394  0.76013987  0.86346587    -0.15860
F1581       F  0.06067329  0.65771440  0.88845727    -0.15870
F1582       F  0.12665778  0.64726926  0.91721194    -0.13500
C1583       C  0.38676640  0.79338359  0.90175061     0.24510
C1584       C  0.36540122  0.76204927  0.90562649    -0.23600
C1585       C  0.35419537  0.74552761  0.87485312     0.19420
C1586       C  0.36534094  0.75852899  0.84135226     0.24450
C1587       C  0.38917032  0.78782637  0.83779051    -0.23540
C1588       C  0.39818287  0.80628355  0.86825227     0.19350
F1589       F  0.42017015  0.83542813  0.86589050    -0.13500
F1590       F  0.39795883  0.81098882  0.93040537    -0.15860
F1591       F  0.35534460  0.74006884  0.81272568    -0.15870
F1592       F  0.33372558  0.71561432  0.87684525    -0.13500
C1593       C  0.33418094  0.92508192  0.99361776     0.24510
C1594       C  0.35873906  0.91301154  0.51983859    -0.23600
C1595       C  0.35672832  0.87686806  0.52749830     0.19420
C1596       C  0.35523177  0.85441986  0.49861515     0.24450
C1597       C  0.33010542  0.86327593  0.97186832    -0.23540
C1598       C  0.31876444  0.90004834  0.97061494     0.19350
F1599       F  0.29154408  0.91115585  0.94977112    -0.13500
F1600       F  0.32350936  0.96017632  0.99229270    -0.15860
F1601       F  0.37215122  0.82211131  0.50040433    -0.15870
F1602       F  0.35670523  0.86478432  0.56171599    -0.13500
C1603       C  0.42968324  0.69239045  0.02888019     0.24510
C1604       C  0.39639845  0.68580361  0.54595057    -0.23600
C1605       C  0.38914876  0.65029124  0.55813498     0.19420
C1606       C  0.40846575  0.62137669  0.54483744     0.24450
C1607       C  0.43917360  0.62726121  0.52308567    -0.23540
C1608       C  0.45190101  0.66307046  0.01914252     0.19350
F1609       F  0.48494100  0.66993936  0.00483094    -0.13500
F1610       F  0.43885707  0.72662439  0.01821118    -0.15860
F1611       F  0.39663367  0.58741647  0.55348900    -0.15870
F1612       F  0.35919809  0.64296084  0.57763418    -0.13500
C1613       C  0.15788772  0.92508038  0.54656500     0.24510
C1614       C  0.16606722  0.89796300  0.51982359    -0.23600
C1615       C  0.13119039  0.89081597  0.00127192     0.19420
C1616       C  0.09744318  0.89488056  0.51747887     0.24450
C1617       C  0.09125867  0.91755993  0.54653184    -0.23540
C1618       C  0.12253883  0.93268795  0.56035477     0.19350
F1619       F  0.11867022  0.95966430  0.58371502    -0.13500
F1620       F  0.18362199  0.94885481  0.55423842    -0.15860
F1621       F  0.06944886  0.88269208  0.99927067    -0.15870
F1622       F  0.13265158  0.87449067  0.96988062    -0.13500
C1623       C  0.14127452  0.60751695  0.52731805     0.24510
C1624       C  0.12967800  0.64107222  0.01213912    -0.23600
C1625       C  0.10000368  0.64144747  0.99018980     0.19420
C1626       C  0.08458092  0.60920095  0.98095599     0.24450
C1627       C  0.09644531  0.57553508  0.99537676    -0.23540
C1628       C  0.12444702  0.57509093  0.51912779     0.19350
F1629       F  0.13457022  0.54346148  0.53557774    -0.13500
F1630       F  0.16892423  0.60596437  0.55005000    -0.15860
F1631       F  0.05757423  0.61138647  0.95771371    -0.15870
F1632       F  0.08683772  0.67292347  0.97574692    -0.13500
C1633       C  0.30966122  0.50560579  0.92434061     0.24510
C1634       C  0.30496844  0.97745827  0.90101821    -0.23600
C1635       C  0.33375271  0.95354354  0.89443269     0.19420
C1636       C  0.36689579  0.95872060  0.90947346     0.24450
C1637       C  0.37222286  0.98810679  0.93152510    -0.23540
C1638       C  0.34320473  0.51117778  0.93907913     0.19350
F1639       F  0.34718144  0.53946158  0.96067283    -0.13500
F1640       F  0.28242992  0.52916386  0.93119816    -0.15860
F1641       F  0.39376599  0.93481121  0.90225525    -0.15870
F1642       F  0.33008789  0.92568522  0.87221047    -0.13500
C1643       C  0.14083306  0.55719170  0.88177646     0.24510
C1644       C  0.14188743  0.58149761  0.85227299    -0.23600
C1645       C  0.10945425  0.59704857  0.84217329     0.19420
C1646       C  0.07722101  0.57928604  0.85120958     0.24450
C1647       C  0.07794726  0.54702449  0.87235804    -0.23540
C1648       C  0.11043128  0.53638443  0.88779597     0.19350
F1649       F  0.11194466  0.00758955  0.91184156    -0.13500
F1650       F  0.17139216  0.54653915  0.89792010    -0.15860
F1651       F  0.04549926  0.59506449  0.84244809    -0.15870
F1652       F  0.10965253  0.63000286  0.82538893    -0.13500
C1653       C  0.05143004  0.56746256  0.66165223     0.24510
C1654       C  0.05601494  0.53556377  0.64253357    -0.23600
C1655       C  0.05292383  0.50220124  0.66229265     0.19420
C1656       C  0.05052239  0.50132931  0.69965639     0.24450
C1657       C  0.05544338  0.53291768  0.71855690    -0.23540
C1658       C  0.04905665  0.56577475  0.69907900     0.19350
F1659       F  0.04431551  0.59693411  0.71635509    -0.13500
F1660       F  0.04962877  0.60030690  0.64445959    -0.15860
F1661       F  0.04917904  0.96889285  0.71742347    -0.15870
F1662       F  0.05304876  0.97009877  0.64578524    -0.13500
C1663       C  0.33080293  0.48240130  0.60334716     0.24510
C1664       C  0.33290548  0.48463534  0.64012633    -0.23600
C1665       C  0.36741270  0.48552461  0.65499744     0.19420
C1666       C  0.39869655  0.48133693  0.63432180     0.24450
C1667       C  0.39665907  0.47978953  0.59759887    -0.23540
C1668       C  0.36226026  0.48138937  0.58228814     0.19350
F1669       F  0.35901093  0.48422548  0.54664290    -0.13500
F1670       F  0.29850508  0.48282777  0.58758898    -0.15860
F1671       F  0.43101193  0.48310620  0.64984252    -0.15870
F1672       F  0.37125651  0.49484538  0.68896842    -0.13500
C1673       C  0.40596113  0.61855852  0.87775058     0.24510
C1674       C  0.43115954  0.61567139  0.90459991    -0.23600
C1675       C  0.43879746  0.64723320  0.92328652     0.19420
C1676       C  0.42733459  0.68117414  0.91118320     0.24450
C1677       C  0.41398657  0.68389605  0.87721775    -0.23540
C1678       C  0.39624367  0.65337593  0.86475575     0.19350
F1679       F  0.37586773  0.65709225  0.83566675    -0.13500
F1680       F  0.39471703  0.58869919  0.86146676    -0.15860
F1681       F  0.44041723  0.71097135  0.92645109    -0.15870
F1682       F  0.96398247  0.64655633  0.94860569    -0.13500
C1683       C  0.51399924  0.91422124  0.85817697     0.24510
C1684       C  0.03170993  0.91011808  0.89082041    -0.23600
C1685       C  0.05146420  0.87715474  0.89528478     0.19420
C1686       C  0.05369136  0.85026127  0.86815845     0.24450
C1687       C  0.03642169  0.85506557  0.83511556    -0.23540
C1688       C  0.51561927  0.88753220  0.83188247     0.19350
F1689       F  0.49457159  0.89311053  0.80338020    -0.13500
F1690       F  0.49301888  0.94393912  0.85204080    -0.15860
F1691       F  0.06949434  0.81784934  0.87582771    -0.15870
F1692       F  0.06582896  0.86936384  0.92727621    -0.13500
C1693       C  0.44309375  0.87004068  0.60862408     0.24510
C1694       C  0.97473628  0.87068158  0.63434147    -0.23600
C1695       C  0.00858470  0.87107354  0.61143545     0.19420
C1696       C  0.01023155  0.86297366  0.57492041     0.24450
C1697       C  0.97986329  0.86133359  0.55331659    -0.23540
C1698       C  0.44716680  0.86054701  0.57214099     0.19350
F1699       F  0.41878091  0.85050812  0.55407421    -0.13500
F1700       F  0.40941186  0.87419225  0.62225667    -0.15860
F1701       F  0.04303249  0.85827270  0.55982108    -0.15870
F1702       F  0.03975355  0.87830230  0.62702681    -0.13500
C1703       C  0.43000960  0.63151636  0.63420170     0.24510
C1704       C  0.45180297  0.66113453  0.62357911    -0.23600
C1705       C  0.97867651  0.65594216  0.59819889     0.19420
C1706       C  0.98865522  0.62148000  0.58872866     0.24450
C1707       C  0.46848582  0.59113110  0.60041126    -0.23540
C1708       C  0.43829381  0.59676314  0.62257828     0.19350
F1709       F  0.41752086  0.56846315  0.63388424    -0.13500
F1710       F  0.40272129  0.63578490  0.65819504    -0.15860
F1711       F  0.02017433  0.61995082  0.57103874    -0.15870
F1712       F  0.99936127  0.68408085  0.58610503    -0.13500
O1713       O  0.54872219  0.04998668  0.42428695    -0.87260
C1714       C  0.97793722  0.05331413  0.09053691     1.12780
O1715       O  0.49092564  0.02093881  0.46004411    -1.35070
O1716       O  0.55801695  0.06519596  0.08315352    -0.88750
O1717       O  0.51936513  0.52123101  0.38271865    -0.89410
O1718       O  0.54461637  0.45068445  0.44263093    -0.78240
O1719       O  0.54113940  0.04943544  0.50054839    -1.00320
C1720       C  0.55773740  0.44087698  0.04271721     1.22820
O1721       O  0.97701069  0.46115856  0.99930439    -1.35220
Mn1722     Mn  0.95741459  0.01387513  0.00422676     1.82060
O1723       O  0.55992873  0.45691267  0.01367855    -0.77310
O1724       O  0.55741551  0.00666803  0.08727066    -0.86710
C1725       C  0.92963120  0.98334048  0.07457555     1.13910
C1726       C  0.55932278  0.03607771  0.10244845     1.08630
O1727       O  0.91006607  0.00923760  0.47619165    -0.78250
O1728       O  0.50641153  0.01907719  0.03286974    -1.31940
O1729       O  0.93419211  0.47714991  0.43621994    -0.97460
C1730       C  0.98496393  0.37562335  0.01385335     1.07340
Mn1731     Mn  0.50718671  0.98673977  0.08384402     1.48570
O1732       O  0.96166524  0.37692578  0.48853255    -0.86660
Mn1733     Mn  0.97406783  0.50027546  0.41187506     1.49560
O1734       O  0.98550757  0.09172876  0.42075575    -0.90540
C1735       C  0.57211025  0.04465439  0.49330612     1.20540
C1736       C  0.95487020  0.08378686  0.41001099     1.12590
Mn1737     Mn  0.52714233  0.48684382  0.48676000     1.80970
O1738       O  0.95803080  0.46667761  0.07938379    -0.95690
Mn1739     Mn  0.51477756  0.06978050  0.46100941     1.49260
C1740       C  0.54665386  0.03759804  0.39392542     1.09110
Mn1741     Mn  0.97798340  0.43136922  0.04680098     1.49930
C1742       C  0.89725028  0.42183277  0.01332852     1.12020
O1743       O  0.99186072  0.44814144  0.42352939    -1.01490
O1744       O  0.48279964  0.02833686  0.11311368    -0.91150
C1745       C  0.52310795  0.43740732  0.42061985     1.23300
O1746       O  0.52892971  0.44281681  0.06123192    -1.01880
O1747       O  0.48632994  0.04483470  0.05926490    -0.89280
O1748       O  0.92088446  0.41976709  0.03766764    -0.88900
O1749       O  0.94581656  0.05111308  0.40394654    -0.88910
Mn1750     Mn  0.52298957  0.07767657  0.03821884     1.47860
O1751       O  0.92572338  0.00401691  0.04783994    -0.77380
C1752       C  0.90750938  0.49272365  0.44782819     1.16350
O1753       O  0.57762224  0.01529993  0.47855745    -0.76110
O1754       O  0.93918330  0.06644147  0.50715837    -0.75730
Mn1755     Mn  0.95257929  0.43121198  0.45824975     1.51060
O1756       O  0.00472994  0.40129986  0.01153433    -0.88080
O1757       O  0.48926890  0.09379720  0.50075386    -0.95610
O1758       O  0.90522917  0.42734282  0.48206904    -0.90620
C1759       C  0.95695557  0.09499094  0.50794162     1.14140
O1760       O  0.53317277  0.19457946  0.32802496    -0.87260
C1761       C  0.95795651  0.18958468  0.14854410     1.12780
O1762       O  0.98491889  0.24155659  0.28579459    -1.35070
O1763       O  0.53486373  0.18216435  0.16897011    -0.88750
O1764       O  0.52674612  0.25097942  0.34927236    -0.89410
O1765       O  0.55026476  0.30246711  0.29196312    -0.78240
O1766       O  0.53129716  0.18132305  0.25123399    -1.00320
C1767       C  0.54533061  0.31473855  0.19692593     1.22820
O1768       O  0.97511983  0.29837420  0.24104482    -1.35220
Mn1769     Mn  0.94720285  0.25333902  0.24676082     1.82060
O1770       O  0.55791587  0.29012151  0.21622194    -0.77310
O1771       O  0.54685933  0.24055838  0.16488600    -0.86710
C1772       C  0.91997517  0.27340355  0.17553052     1.13910
C1773       C  0.55177009  0.20915780  0.15419529     1.08630
O1774       O  0.90618965  0.27298051  0.27923444    -0.78250
O1775       O  0.49158928  0.23662384  0.21531485    -1.31940
O1776       O  0.94182210  0.30562807  0.30729238    -0.97460
C1777       C  0.47602642  0.38651023  0.17770292     1.07340
Mn1778     Mn  0.49696409  0.26227337  0.16458482     1.48570
O1779       O  0.97462710  0.37869857  0.21352266    -0.86660
Mn1780     Mn  0.97890329  0.27525017  0.32923531     1.49560
O1781       O  0.95440177  0.18244257  0.32999465    -0.90540
C1782       C  0.56197180  0.19407241  0.24879690     1.20540
C1783       C  0.93861899  0.20264457  0.35213016     1.12590
Mn1784     Mn  0.52295967  0.26623075  0.25197065     1.80970
O1785       O  0.94988893  0.28629863  0.16712182    -0.95690
Mn1786     Mn  0.49452620  0.18447906  0.29155567     1.49260
C1787       C  0.54360773  0.22061918  0.34620250     1.09110
Mn1788     Mn  0.96924673  0.32483040  0.19589957     1.49930
C1789       C  0.89949528  0.35410447  0.22843541     1.12020
O1790       O  0.99893948  0.31761757  0.30342795    -1.01490
O1791       O  0.47554805  0.21763096  0.13862511    -0.91150
C1792       C  0.52948232  0.32424425  0.30879965     1.23300
O1793       O  0.51657742  0.30899050  0.18213438    -1.01880
O1794       O  0.45321828  0.18088637  0.18063017    -0.89280
O1795       O  0.91566531  0.34209632  0.20181507    -0.88880
O1796       O  0.94641113  0.23589870  0.35620829    -0.88910
Mn1797     Mn  0.49561812  0.17976207  0.21378747     1.47860
O1798       O  0.91376243  0.26208947  0.20653431    -0.77380
C1799       C  0.91230160  0.29161488  0.30555767     1.16350
O1800       O  0.56596419  0.22746005  0.25516495    -0.76110
O1801       O  0.91779069  0.20857833  0.25301511    -0.75730
Mn1802     Mn  0.96393135  0.34136283  0.26877877     1.51060
O1803       O  0.97227167  0.35995943  0.16008314    -0.88080
O1804       O  0.96010822  0.16972886  0.25477797    -0.95610
O1805       O  0.91298546  0.35317107  0.25820957    -0.90620
C1806       C  0.92715714  0.17644257  0.25474725     1.14140
O1807       O  0.78690042  0.05654644  0.34838069    -0.87260
C1808       C  0.80091911  0.98992514  0.16371692     1.12780
O1809       O  0.73791723  0.01458658  0.30360150    -1.35070
O1810       O  0.80969294  0.06258032  0.18745046    -0.88750
O1811       O  0.72793902  0.06354243  0.35973889    -0.89410
O1812       O  0.68730833  0.08537860  0.30529771    -0.78240
O1813       O  0.80401124  0.05283067  0.27157520    -1.00320
C1814       C  0.67985143  0.08988488  0.21439558     1.22820
O1815       O  0.67926623  0.01332118  0.25941158    -1.35220
Mn1816     Mn  0.72339366  0.97869066  0.26494072     1.82050
O1817       O  0.70471840  0.09615394  0.23428457    -0.77310
O1818       O  0.75424895  0.08166140  0.17757049    -0.86710
C1819       C  0.70636323  0.45707271  0.19394474     1.13910
C1820       C  0.78707312  0.08212096  0.16968477     1.08630
O1821       O  0.70423480  0.43498773  0.30054031    -0.78250
O1822       O  0.74745231  0.02257034  0.23196570    -1.31940
O1823       O  0.67657144  0.47023488  0.33421154    -0.97460
C1824       C  0.58932999  0.03150261  0.23872402     1.07340
Mn1825     Mn  0.72787786  0.03372751  0.18061736     1.48570
O1826       O  0.59415350  0.01691332  0.26983975    -0.86660
Mn1827     Mn  0.70473604  0.01314386  0.34937059     1.49560
O1828       O  0.78389930  0.97373703  0.34410910    -0.90540
C1829       C  0.79798173  0.08500530  0.27220933     1.20540
C1830       C  0.77552153  0.97915010  0.37578010     1.12590
Mn1831     Mn  0.72056830  0.05594077  0.26876071     1.80970
O1832       O  0.69931413  0.98932727  0.18624685    -0.95690
Mn1833     Mn  0.79358009  0.01667255  0.31002882     1.49260
C1834       C  0.75983851  0.07554240  0.35808617     1.09110
Mn1835     Mn  0.65807747  0.01447902  0.20710412     1.49930
C1836       C  0.62158665  0.44229781  0.23813340     1.12020
O1837       O  0.66606633  0.03465542  0.32186524    -1.01490
O1838       O  0.77335081  0.00796446  0.15360306    -0.91150
C1839       C  0.66420714  0.06734547  0.32335935     1.23300
O1840       O  0.68214628  0.06093397  0.19723612    -1.01880
O1841       O  0.80394302  0.98112519  0.19568489    -0.89280
O1842       O  0.63129427  0.46527544  0.21405930    -0.88880
O1843       O  0.74394189  0.48977157  0.38400082    -0.88910
Mn1844     Mn  0.80394411  0.02142318  0.23111229     1.47860
O1845       O  0.71142444  0.44680562  0.22527039    -0.77380
C1846       C  0.68836744  0.43953195  0.33002367     1.16350
O1847       O  0.76497416  0.09458716  0.27450181    -0.76110
O1848       O  0.76488651  0.44418221  0.26952470    -0.75730
Mn1849     Mn  0.64128221  0.49466075  0.29862048     1.51060
O1850       O  0.61511682  0.04274643  0.22027263    -0.88080
O1851       O  0.80364697  0.98525056  0.27055156    -0.95610
O1852       O  0.62599154  0.44712063  0.27151968    -0.90620
C1853       C  0.79645032  0.95318749  0.26847511     1.14140
O1854       O  0.83637131  0.21955375  0.44622375    -0.87260
C1855       C  0.65273070  0.17333767  0.51184952     1.12780
O1856       O  0.78614263  0.24841616  0.50387625    -1.35070
O1857       O  0.68534903  0.18531071  0.44076546    -0.88750
O1858       O  0.85055781  0.27374544  0.46454503    -0.89410
O1859       O  0.78962654  0.31823969  0.44324193    -0.78240
O1860       O  0.76265683  0.19869444  0.45458977    -1.00320
C1861       C  0.69084980  0.32155727  0.44389027     1.22820
O1862       O  0.73391890  0.30247079  0.01629780    -1.35220
Mn1863     Mn  0.74109933  0.25132283  0.04051123     1.82050
O1864       O  0.71703965  0.30263601  0.43425772    -0.77310
O1865       O  0.66942691  0.24339156  0.43301640    -0.86710
C1866       C  0.66412590  0.25255359  0.06024966     1.13910
C1867       C  0.66972730  0.21112444  0.42314556     1.08630
O1868       O  0.76988566  0.26487234  0.08670357    -0.78250
O1869       O  0.71563617  0.23832974  0.49278960    -1.31940
O1870       O  0.80233592  0.30041222  0.05558005    -0.97460
C1871       C  0.70728002  0.39400698  0.50208878     1.07340
Mn1872     Mn  0.66272600  0.25648497  0.48438464     1.48570
O1873       O  0.73994399  0.38187857  0.50485852    -0.86660
Mn1874     Mn  0.82761120  0.28195908  0.01370662     1.49560
O1875       O  0.84146977  0.18877111  0.52023874    -0.90540
C1876       C  0.76458472  0.21003936  0.42449403     1.20540
C1877       C  0.86483183  0.20721530  0.03465935     1.12590
Mn1878     Mn  0.75173642  0.27600914  0.46676450     1.80970
O1879       O  0.66038570  0.27126922  0.03291078    -0.95690
Mn1880     Mn  0.80124811  0.19692211  0.48596188     1.49260
C1881       C  0.85059932  0.25046742  0.44103927     1.09110
Mn1882     Mn  0.67972828  0.32013146  0.02395597     1.49930
C1883       C  0.71246749  0.34820004  0.09135475     1.12020
O1884       O  0.79547133  0.31908658  0.49565284    -1.01490
O1885       O  0.64204517  0.20352248  0.49772448    -0.91150
C1886       C  0.80292177  0.33409785  0.46865629     1.23300
O1887       O  0.67292231  0.31084395  0.47141407    -1.01880
O1888       O  0.68488430  0.16827370  0.51994590    -0.89280
O1889       O  0.68677528  0.33037291  0.07840501    -0.88880
O1890       O  0.86303554  0.24161324  0.03597701    -0.88910
Mn1891     Mn  0.72360113  0.18295947  0.48341610     1.47860
O1892       O  0.69498742  0.24914029  0.07259204    -0.77380
C1893       C  0.79797620  0.28343283  0.08325360     1.16350
O1894       O  0.76361338  0.24422009  0.41992887    -0.76110
O1895       O  0.74780153  0.20195603  0.06395328    -0.75730
Mn1896     Mn  0.76997602  0.33843457  0.03322256     1.51060
O1897       O  0.68692542  0.37385420  0.01714710    -0.88080
O1898       O  0.76453660  0.17361857  0.51811981    -0.95610
O1899       O  0.74356231  0.35071575  0.07785526    -0.90620
C1900       C  0.76311658  0.17552235  0.05082765     1.14140
C1901       C  0.79471406  0.16263675  0.10765498     0.24510
C1902       C  0.77961106  0.14920542  0.07663013    -0.23600
C1903       C  0.77555085  0.11178329  0.07445361     0.19420
C1904       C  0.78331787  0.08874198  0.10378605     0.24450
C1905       C  0.79592502  0.10245446  0.13589842    -0.23540
C1906       C  0.80299839  0.13954557  0.13668590     0.19350
F1907       F  0.81494822  0.15400493  0.16669814    -0.13500
F1908       F  0.80090118  0.19858219  0.11017582    -0.15860
F1909       F  0.77432331  0.05348995  0.10190709    -0.15870
F1910       F  0.76018176  0.09790827  0.04570552    -0.13500
C1911       C  0.69736730  0.39237946  0.17848053     0.24510
C1912       C  0.70496863  0.42892755  0.16794792    -0.23600
C1913       C  0.71439553  0.43755402  0.13288650     0.19420
C1914       C  0.71801197  0.41024201  0.10920625     0.24450
C1915       C  0.70643285  0.37474670  0.11827740    -0.23540
C1916       C  0.69625306  0.36569406  0.15314620     0.19350
F1917       F  0.68789442  0.33102048  0.16300014    -0.13500
F1918       F  0.68935861  0.38283823  0.21281779    -0.15860
F1919       F  0.73542803  0.41807676  0.07785618    -0.15870
F1920       F  0.72274236  0.47190379  0.12193873    -0.13500
C1921       C  0.65415407  0.39111970  0.37102239     0.24510
C1922       C  0.68601814  0.40956187  0.35966076    -0.23600
C1923       C  0.71705743  0.39915381  0.37773392     0.19420
C1924       C  0.71622670  0.37468647  0.40734401     0.24450
C1925       C  0.68521872  0.35538568  0.41891327    -0.23540
C1926       C  0.65437565  0.36324932  0.39888363     0.19350
F1927       F  0.62541884  0.34216069  0.40475084    -0.13500
F1928       F  0.62341303  0.39825961  0.35360956    -0.15860
F1929       F  0.74731343  0.36819448  0.42373538    -0.15870
F1930       F  0.74925310  0.41141965  0.36573959    -0.13500
C1931       C  0.79302229  0.11960291  0.39243355     0.24510
C1932       C  0.76589986  0.11304207  0.36886528    -0.23600
C1933       C  0.74434834  0.14245143  0.35670595     0.19420
C1934       C  0.74758623  0.17693731  0.37083718     0.24450
C1935       C  0.77158441  0.18211088  0.39800230    -0.23540
C1936       C  0.79526691  0.15322430  0.40754946     0.19350
F1937       F  0.81818282  0.15587565  0.43458840    -0.13500
F1938       F  0.81522294  0.09243886  0.40366798    -0.15860
F1939       F  0.72496075  0.20404649  0.36050069    -0.15870
F1940       F  0.71969260  0.13792195  0.33167513    -0.13500
C1941       C  0.86470282  0.09606514  0.28095123     0.24510
C1942       C  0.83054973  0.10942865  0.26988794    -0.23600
C1943       C  0.82997333  0.14289659  0.25140614     0.19420
C1944       C  0.86188648  0.16229907  0.24424808     0.24450
C1945       C  0.89594606  0.14998445  0.25663650    -0.23540
C1946       C  0.89672132  0.11607502  0.27466713     0.19350
F1947       F  0.92800103  0.10298203  0.28771653    -0.13500
F1948       F  0.86714038  0.06342971  0.29849939    -0.15860
F1949       F  0.85924553  0.19360670  0.22454777    -0.15870
F1950       F  0.79860595  0.15632867  0.23883522    -0.13500
C1951       C  0.85639666  0.43774385  0.24480569     0.24510
C1952       C  0.82304967  0.42623816  0.25804628    -0.23600
C1953       C  0.81297462  0.38963753  0.25518921     0.19420
C1954       C  0.83635314  0.36518134  0.23943668     0.24450
C1955       C  0.86898459  0.37740984  0.22512096    -0.23540
C1956       C  0.87787312  0.41423376  0.22584530     0.19350
F1957       F  0.91040504  0.42592726  0.21351591    -0.13500
F1958       F  0.86873818  0.47127848  0.25138425    -0.15860
F1959       F  0.82880119  0.32923229  0.24110240    -0.15870
F1960       F  0.78137594  0.37713103  0.26912836    -0.13500
C1961       C  0.62189254  0.17886355  0.21502729     0.24510
C1962       C  0.59332318  0.16930705  0.23900365    -0.23600
C1963       C  0.59393167  0.13399740  0.25327837     0.19420
C1964       C  0.62226262  0.11002561  0.24573067     0.24450
C1965       C  0.64768830  0.11615286  0.21793681    -0.23540
C1966       C  0.64841299  0.15257569  0.20444364     0.19350
F1967       F  0.67549344  0.16318240  0.18193237    -0.13500
F1968       F  0.62380791  0.21321536  0.20115788    -0.15860
F1969       F  0.62652712  0.08191391  0.26855579    -0.15870
F1970       F  0.56734967  0.12278191  0.27614977    -0.13500
C1971       C  0.55225716  0.36893166  0.23260009     0.24510
C1972       C  0.56101662  0.35135019  0.20126524    -0.23600
C1973       C  0.59029095  0.36465408  0.18096801     0.19420
C1974       C  0.60812748  0.39601076  0.19131753     0.24450
C1975       C  0.60231758  0.40987188  0.22568032    -0.23540
C1976       C  0.57347946  0.39610495  0.24578564     0.19350
F1977       F  0.56389699  0.41132161  0.27680149    -0.13500
F1978       F  0.52251315  0.35950054  0.25058612    -0.15860
F1979       F  0.62932704  0.41369640  0.16701995    -0.15870
F1980       F  0.60105634  0.34803945  0.15095022    -0.13500
C1981       C  0.85309748  0.27020176  0.16640949     0.24510
C1982       C  0.88847321  0.27623789  0.15250060    -0.23600
C1983       C  0.89293968  0.28542034  0.11680031     0.19420
C1984       C  0.86328520  0.28966622  0.09565798     0.24450
C1985       C  0.82807797  0.28215901  0.10850283    -0.23540
C1986       C  0.82337984  0.27230759  0.14435733     0.19350
F1987       F  0.79014372  0.26557856  0.15825127    -0.13500
F1988       F  0.84687615  0.26272442  0.20144991    -0.15860
F1989       F  0.86986017  0.30008728  0.06181427    -0.15870
F1990       F  0.92617467  0.28953520  0.10192968    -0.13500
C1991       C  0.59824254  0.24983085  0.07519319     0.24510
C1992       C  0.63281842  0.23524919  0.07913674    -0.23600
C1993       C  0.63691274  0.20343608  0.10082514     0.19420
C1994       C  0.60778155  0.18940407  0.12124482     0.24450
C1995       C  0.57496871  0.20797770  0.12171431    -0.23540
C1996       C  0.56971922  0.23629230  0.09611629     0.19350
F1997       F  0.53754257  0.25370833  0.09428869    -0.13500
F1998       F  0.59242691  0.27914083  0.05326363    -0.15860
F1999       F  0.61185475  0.15863965  0.14130929    -0.15870
F2000       F  0.66916856  0.18628037  0.10267958    -0.13500
C2001       C  0.63984270  0.23426294  0.36943530     0.24510
C2002       C  0.64595653  0.20484393  0.39342968    -0.23600
C2003       C  0.62014943  0.17751897  0.39705477     0.19420
C2004       C  0.58633478  0.18291422  0.38227514     0.24450
C2005       C  0.57863769  0.21509681  0.36263245    -0.23540
C2006       C  0.60638759  0.23946950  0.35445861     0.19350
F2007       F  0.60114062  0.26848914  0.33213215    -0.13500
F2008       F  0.66518427  0.26010397  0.36354237    -0.15860
F2009       F  0.56064424  0.15752190  0.38838318    -0.15870
F2010       F  0.62659663  0.14717633  0.41723994    -0.13500
C2011       C  0.88663774  0.29343423  0.40173837     0.24510
C2012       C  0.86526148  0.26210452  0.40560822    -0.23600
C2013       C  0.85417503  0.24552178  0.37482532     0.19420
C2014       C  0.86543288  0.25847724  0.34132573     0.24450
C2015       C  0.88923211  0.28782230  0.33776968    -0.23540
C2016       C  0.89815331  0.30629851  0.36824733     0.19350
F2017       F  0.92010288  0.33546949  0.36591100    -0.13500
F2018       F  0.89773723  0.31107845  0.43040605    -0.15860
F2019       F  0.85555389  0.23994031  0.31270666    -0.15870
F2020       F  0.83371194  0.21559642  0.37681952    -0.13500
C2021       C  0.83416066  0.42518915  0.49351449     0.24510
C2022       C  0.85886429  0.41282765  0.01911775    -0.23600
C2023       C  0.85657287  0.37677067  0.02718402     0.19420
C2024       C  0.85515204  0.35406684  0.99846062     0.24450
C2025       C  0.82977479  0.36335588  0.47190194    -0.23540
C2026       C  0.81855612  0.40016621  0.47062287     0.19350
F2027       F  0.79130672  0.41134352  0.44984826    -0.13500
F2028       F  0.82357187  0.46030577  0.49219468    -0.15860
F2029       F  0.87230850  0.32187801  0.00031102    -0.15870
F2030       F  0.85831365  0.36501901  0.06140086    -0.13500
C2031       C  0.92958991  0.19255628  0.52880867     0.24510
C2032       C  0.89634031  0.18590149  0.04606332    -0.23600
C2033       C  0.88909395  0.15045596  0.05845342     0.19420
C2034       C  0.90840222  0.12145520  0.04530466     0.24450
C2035       C  0.93910000  0.12723325  0.02350934    -0.23540
C2036       C  0.95183330  0.16320251  0.51918475     0.19350
F2037       F  0.98485725  0.17003803  0.50481680    -0.13500
F2038       F  0.93874205  0.22675730  0.51800667    -0.15860
F2039       F  0.89654071  0.08753298  0.05408278    -0.15870
F2040       F  0.85915466  0.14325147  0.07800799    -0.13500
C2041       C  0.65765448  0.42487973  0.04659048     0.24510
C2042       C  0.66585641  0.39767927  0.01988395    -0.23600
C2043       C  0.63022954  0.38969202  0.50197223     0.19420
C2044       C  0.59717504  0.39455888  0.01769479     0.24450
C2045       C  0.59104014  0.41729638  0.04671869    -0.23540
C2046       C  0.62234061  0.43239008  0.06050811     0.19350
F2047       F  0.61849891  0.45929368  0.08395274    -0.13500
F2048       F  0.68333750  0.44875010  0.05414694    -0.15860
F2049       F  0.56852068  0.38162542  0.50005752    -0.15870
F2050       F  0.63160292  0.37296471  0.47076939    -0.13500
C2051       C  0.64121007  0.10745626  0.02735866     0.24510
C2052       C  0.62956744  0.14105372  0.51215084    -0.23600
C2053       C  0.59984252  0.14152704  0.49027013     0.19420
C2054       C  0.58439010  0.10933772  0.48096293     0.24450
C2055       C  0.59633229  0.07561254  0.49517781    -0.23540
C2056       C  0.62440034  0.07504207  0.01910958     0.19350
F2057       F  0.63452056  0.04338968  0.03551920    -0.13500
F2058       F  0.66885110  0.10587652  0.05009982    -0.15860
F2059       F  0.55723953  0.11165885  0.45789605    -0.15870
F2060       F  0.58664161  0.17305129  0.47596138    -0.13500
C2061       C  0.80954870  0.00564132  0.42447727     0.24510
C2062       C  0.80500623  0.47747084  0.40095392    -0.23600
C2063       C  0.83376153  0.45351565  0.39437818     0.19420
C2064       C  0.86691346  0.45865344  0.40942279     0.24450
C2065       C  0.87227659  0.48804063  0.43146293    -0.23540
C2066       C  0.84307911  0.01127488  0.43922167     0.19350
F2067       F  0.84701004  0.03956894  0.46081215    -0.13500
F2068       F  0.78227875  0.02916117  0.43131453    -0.15860
F2069       F  0.89375528  0.43470580  0.40222438    -0.15870
F2070       F  0.83005939  0.42565452  0.37216679    -0.13500
C2071       C  0.64101831  0.05686495  0.38192967     0.24510
C2072       C  0.64199404  0.08124012  0.35245368    -0.23600
C2073       C  0.60951637  0.09663409  0.34235005     0.19420
C2074       C  0.57738716  0.07864507  0.35121522     0.24450
C2075       C  0.57817729  0.04644826  0.37245055    -0.23540
C2076       C  0.61064887  0.03598386  0.38801117     0.19350
F2077       F  0.61169052  0.50791379  0.41152846    -0.13500
F2078       F  0.67160151  0.04638111  0.39812820    -0.15860
F2079       F  0.54561951  0.09421734  0.34229171    -0.15870
F2080       F  0.60956478  0.12959908  0.32559754    -0.13500
C2081       C  0.55146693  0.06750207  0.16164357     0.24510
C2082       C  0.55603231  0.03559951  0.14252698    -0.23600
C2083       C  0.55292819  0.00224040  0.16229099     0.19420
C2084       C  0.55054073  0.00137443  0.19965547     0.24450
C2085       C  0.55549433  0.03296168  0.21854858    -0.23540
C2086       C  0.54911588  0.06582009  0.19907141     0.19350
F2087       F  0.54439855  0.09698290  0.21634752    -0.13500
F2088       F  0.54966230  0.10034383  0.14444747    -0.15860
F2089       F  0.54929606  0.46878503  0.21739699    -0.15870
F2090       F  0.55314023  0.47004800  0.14576350    -0.13500
C2091       C  0.83119289  0.98211316  0.10356870     0.24510
C2092       C  0.83323847  0.98429161  0.14034367    -0.23600
C2093       C  0.86776000  0.98489270  0.15525902     0.19420
C2094       C  0.89906739  0.98048472  0.13460982     0.24450
C2095       C  0.89706560  0.97918908  0.09785411    -0.23540
C2096       C  0.86266814  0.98106149  0.08255205     0.19350
F2097       F  0.85944104  0.98430684  0.04693463    -0.13500
F2098       F  0.79892989  0.98274887  0.08774875    -0.15860
F2099       F  0.93138323  0.98186926  0.15019491    -0.15870
F2100       F  0.87162979  0.99423248  0.18921901    -0.13500
C2101       C  0.90586639  0.11849953  0.37759162     0.24510
C2102       C  0.93096201  0.11565899  0.40453111    -0.23600
C2103       C  0.93840007  0.14721529  0.42330797     0.19420
C2104       C  0.92694485  0.18114321  0.41116950     0.24450
C2105       C  0.91372896  0.18385448  0.37715333    -0.23540
C2106       C  0.89607221  0.15330714  0.36463135     0.19350
F2107       F  0.87573358  0.15701159  0.33551925    -0.13500
F2108       F  0.89478389  0.08862508  0.36122668    -0.15860
F2109       F  0.93992804  0.21094934  0.42649975    -0.15870
F2110       F  0.46271011  0.14640715  0.44902646    -0.13500
C2111       C  0.01416283  0.41409480  0.35821774     0.24510
C2112       C  0.53219024  0.41048306  0.39056859    -0.23600
C2113       C  0.55179820  0.37746587  0.39510106     0.19420
C2114       C  0.55383547  0.35045121  0.36808069     0.24450
C2115       C  0.53647416  0.35516851  0.33507750    -0.23540
C2116       C  0.01575795  0.38734534  0.33198235     0.19350
F2117       F  0.99473576  0.39290371  0.30345942    -0.13500
F2118       F  0.99324964  0.44384451  0.35199748    -0.15860
F2119       F  0.56950351  0.31800022  0.37584575    -0.15870
F2120       F  0.56617666  0.36977348  0.42710317    -0.13500
C2121       C  0.94445480  0.37065006  0.10794460     0.24510
C2122       C  0.47503176  0.37049777  0.13416325    -0.23600
C2123       C  0.50893529  0.37038066  0.11130667     0.19420
C2124       C  0.51052304  0.36234282  0.07475503     0.24450
C2125       C  0.48014367  0.36103990  0.05311998    -0.23540
C2126       C  0.94840600  0.36079679  0.07155244     0.19350
F2127       F  0.91991899  0.35126049  0.05338012    -0.13500
F2128       F  0.91086849  0.37620898  0.12125494    -0.15860
F2129       F  0.54327977  0.35720905  0.05970016    -0.15870
F2130       F  0.54019822  0.37703626  0.12697152    -0.13500
C2131       C  0.93021017  0.13115717  0.13454905     0.24510
C2132       C  0.95187890  0.16085028  0.12382572    -0.23600
C2133       C  0.47866146  0.15595041  0.09817963     0.19420
C2134       C  0.48865953  0.12148854  0.08873134     0.24450
C2135       C  0.96870800  0.09083127  0.10068976    -0.23540
C2136       C  0.93856424  0.09640348  0.12294026     0.19350
F2137       F  0.91789265  0.06805156  0.13432088    -0.13500
F2138       F  0.90294886  0.13536658  0.15858452    -0.15860
F2139       F  0.52019436  0.11996669  0.07106938    -0.15870
F2140       F  0.49933655  0.18409177  0.08607410    -0.13500
O2141       O  0.54867038  0.05016884  0.92424302    -0.87260
C2142       C  0.97794347  0.05322844  0.59051728     1.12780
O2143       O  0.49090722  0.02099686  0.96006057    -1.35070
O2144       O  0.55795894  0.06521934  0.58317812    -0.88750
O2145       O  0.51970039  0.52066915  0.88291965    -0.89410
O2146       O  0.54440307  0.45063944  0.94261214    -0.78240
O2147       O  0.54114209  0.04952098  0.00051929    -1.00320
C2148       C  0.55737325  0.44068392  0.54304772     1.22820
O2149       O  0.97699850  0.46125327  0.49928460    -1.35220
Mn2150     Mn  0.95741547  0.01387548  0.50423919     1.82060
O2151       O  0.55978564  0.45670609  0.51399276    -0.77310
O2152       O  0.55740030  0.00668989  0.58727345    -0.86710
C2153       C  0.92963165  0.98329533  0.57456865     1.13910
C2154       C  0.55930615  0.03609445  0.60245921     1.08630
O2155       O  0.91005773  0.00923267  0.97619113    -0.78250
O2156       O  0.50641249  0.01906446  0.53285448    -1.31940
O2157       O  0.93437924  0.47665123  0.93619744    -0.97460
C2158       C  0.98381823  0.37576233  0.51402524     1.07340
Mn2159     Mn  0.50716556  0.98677689  0.58385518     1.48570
O2160       O  0.96323771  0.37630165  0.98798878    -0.86660
Mn2161     Mn  0.97402855  0.50035257  0.91184451     1.49560
O2162       O  0.98554028  0.09171260  0.92074377    -0.90540
C2163       C  0.57210705  0.04473060  0.99326744     1.20540
C2164       C  0.95489641  0.08379473  0.90999554     1.12590
Mn2165     Mn  0.52709026  0.48691885  0.98664238     1.80970
O2166       O  0.95846981  0.46627950  0.57932660    -0.95690
Mn2167     Mn  0.51473241  0.06986860  0.96102535     1.49260
C2168       C  0.54665705  0.03762410  0.89394031     1.09110
Mn2169     Mn  0.97832460  0.43109182  0.54652748     1.49930
C2170       C  0.89702837  0.42230402  0.51381467     1.12020
O2171       O  0.99225744  0.44837104  0.92333807    -1.01490
O2172       O  0.48279491  0.02841353  0.61310916    -0.91150
C2173       C  0.52281639  0.43712633  0.92082279     1.23300
O2174       O  0.52857203  0.44288626  0.56152240    -1.01880
O2175       O  0.48625568  0.04491656  0.55926592    -0.89280
O2176       O  0.92102926  0.41940833  0.53778213    -0.88900
O2177       O  0.94581529  0.05112411  0.90394422    -0.88910
Mn2178     Mn  0.52298308  0.07766743  0.53819480     1.47860
O2179       O  0.92572592  0.00398452  0.54784229    -0.77380
C2180       C  0.90762913  0.49209935  0.94783604     1.16350
O2181       O  0.57760587  0.01536800  0.97852657    -0.76110
O2182       O  0.93919973  0.06643004  0.00709477    -0.75730
Mn2183     Mn  0.95326434  0.43073746  0.95802891     1.51060
O2184       O  0.00471744  0.40056418  0.51107395    -0.88080
O2185       O  0.48923636  0.09384805  0.00081722    -0.95610
O2186       O  0.90585798  0.42589320  0.98155318    -0.90620
C2187       C  0.95698334  0.09496602  0.00790501     1.14140
O2188       O  0.53313588  0.19438906  0.82808706    -0.87260
C2189       C  0.95792028  0.18947740  0.64848356     1.12780
O2190       O  0.98495276  0.24169240  0.78567918    -1.35070
O2191       O  0.53479336  0.18207763  0.66902176    -0.88750
O2192       O  0.52672794  0.25078039  0.84935670    -0.89410
O2193       O  0.55037635  0.30218345  0.79221952    -0.78240
O2194       O  0.53124755  0.18115439  0.75129392    -1.00320
C2195       C  0.54564121  0.31450617  0.69724823     1.22820
O2196       O  0.97489020  0.29844571  0.74098680    -1.35220
Mn2197     Mn  0.94713213  0.25331531  0.74670399     1.82060
O2198       O  0.55812776  0.28981933  0.71650567    -0.77310
O2199       O  0.54698908  0.24042101  0.66508289    -0.86710
C2200       C  0.91972257  0.27317441  0.67549663     1.13910
C2201       C  0.55177296  0.20904479  0.65429884     1.08630
O2202       O  0.90609616  0.27280814  0.77921331    -0.78250
O2203       O  0.49165374  0.23657261  0.71542804    -1.31940
O2204       O  0.94164301  0.30553018  0.80727576    -0.97460
C2205       C  0.47682688  0.38635730  0.67758894     1.07340
Mn2206     Mn  0.49715747  0.26225990  0.66473449     1.48570
O2207       O  0.97365714  0.37887102  0.71379913    -0.86660
Mn2208     Mn  0.97889187  0.27537751  0.82914959     1.49560
O2209       O  0.95450781  0.18251974  0.82989630    -0.90540
C2210       C  0.56193118  0.19388870  0.74889477     1.20540
C2211       C  0.93873219  0.20270053  0.85205262     1.12590
Mn2212     Mn  0.52303574  0.26606253  0.75215639     1.80970
O2213       O  0.94955503  0.28622818  0.66705720    -0.95690
Mn2214     Mn  0.49446641  0.18436479  0.79161287     1.49260
C2215       C  0.54358882  0.22042287  0.84626337     1.09110
Mn2216     Mn  0.96878098  0.32482918  0.69588906     1.49930
C2217       C  0.89897033  0.35378461  0.72854094     1.12020
O2218       O  0.99877833  0.31787706  0.80336018    -1.01490
O2219       O  0.47565517  0.21771600  0.63868765    -0.91150
C2220       C  0.52958660  0.32398645  0.80899921     1.23300
O2221       O  0.51690026  0.30887129  0.68237514    -1.01880
O2222       O  0.45316782  0.18103935  0.68066086    -0.89280
O2223       O  0.91512464  0.34174100  0.70193773    -0.88880
O2224       O  0.94652085  0.23594948  0.85614826    -0.88910
Mn2225     Mn  0.49556189  0.17972070  0.71383528     1.47860
O2226       O  0.91358687  0.26188118  0.70652023    -0.77380
C2227       C  0.91216917  0.29144957  0.80553605     1.16350
O2228       O  0.56595062  0.22723591  0.75538702    -0.76110
O2229       O  0.91785154  0.20850203  0.75301400    -0.75730
Mn2230     Mn  0.96347935  0.34137419  0.76886263     1.51060
O2231       O  0.97155145  0.36021020  0.66036143    -0.88080
O2232       O  0.96023206  0.16973663  0.75470921    -0.95610
O2233       O  0.91248046  0.35293869  0.75830604    -0.90620
C2234       C  0.92726459  0.17638746  0.75470442     1.14140
O2235       O  0.78694245  0.05643839  0.84836144    -0.87260
C2236       C  0.80091825  0.98992082  0.66368645     1.12780
O2237       O  0.73794772  0.01455019  0.80358679    -1.35070
O2238       O  0.80969631  0.06258300  0.68742052    -0.88750
O2239       O  0.72798119  0.06346071  0.85971074    -0.89410
O2240       O  0.68733921  0.08534667  0.80530596    -0.78240
O2241       O  0.80405644  0.05279270  0.77156051    -1.00320
C2242       C  0.67987256  0.08985162  0.71439530     1.22820
O2243       O  0.67929014  0.01330043  0.75941222    -1.35220
Mn2244     Mn  0.72341748  0.97866656  0.76492899     1.82050
O2245       O  0.70474498  0.09612856  0.73427752    -0.77310
O2246       O  0.75424644  0.08165220  0.67754901    -0.86710
C2247       C  0.70650501  0.45702819  0.69401392     1.13910
C2248       C  0.78706961  0.08212596  0.66966045     1.08630
O2249       O  0.70421679  0.43504042  0.80055063    -0.78250
O2250       O  0.74747376  0.02255132  0.73195219    -1.31940
O2251       O  0.67660073  0.47025913  0.83428408    -0.97460
C2252       C  0.58934132  0.03147114  0.73872529     1.07340
Mn2253     Mn  0.72788906  0.03370976  0.68060574     1.48570
O2254       O  0.59417328  0.01690093  0.76984904    -0.86660
Mn2255     Mn  0.70476598  0.01309076  0.84935804     1.49560
O2256       O  0.78392124  0.97367298  0.84407830    -0.90540
C2257       C  0.79803882  0.08496956  0.77220505     1.20540
C2258       C  0.77554457  0.97909027  0.87575145     1.12590
Mn2259     Mn  0.72060087  0.05591664  0.76875628     1.80970
O2260       O  0.69933654  0.98930338  0.68624540    -0.95690
Mn2261     Mn  0.79361491  0.01661211  0.81000047     1.49260
C2262       C  0.75988224  0.07544500  0.85803556     1.09110
Mn2263     Mn  0.65809845  0.01444683  0.70710767     1.49930
C2264       C  0.62171912  0.44225736  0.73830132     1.12020
O2265       O  0.66610147  0.03462324  0.82187042    -1.01490
O2266       O  0.77335348  0.00796265  0.65357180    -0.91150
C2267       C  0.66424550  0.06731043  0.82337556     1.23300
O2268       O  0.68216336  0.06090182  0.69723720    -1.01880
O2269       O  0.80393563  0.98111415  0.69565197    -0.89280
O2270       O  0.63142865  0.46518561  0.71417372    -0.88880
O2271       O  0.74400328  0.48978298  0.88405449    -0.88910
Mn2272     Mn  0.80396260  0.02140500  0.73108138     1.47860
O2273       O  0.71152229  0.44681119  0.72535462    -0.77380
C2274       C  0.68838177  0.43955921  0.83004832     1.16350
O2275       O  0.76502953  0.09455838  0.77449587    -0.76110
O2276       O  0.76483068  0.44424106  0.76968787    -0.75730
Mn2277     Mn  0.64133632  0.49469792  0.79868630     1.51060
O2278       O  0.61512236  0.04269822  0.72025450    -0.88080
O2279       O  0.80366860  0.98521815  0.77050974    -0.95610
O2280       O  0.62607273  0.44715790  0.77167048    -0.90620
C2281       C  0.79647154  0.95315715  0.76843289     1.14140
O2282       O  0.83628477  0.21933346  0.94605379    -0.87260
C2283       C  0.65272522  0.17339941  0.01198771     1.12780
O2284       O  0.78628637  0.24824808  0.00378026    -1.35070
O2285       O  0.68529471  0.18524695  0.94088405    -0.88750
O2286       O  0.85091150  0.27333023  0.96454184    -0.89410
O2287       O  0.78984047  0.31784572  0.94297365    -0.78240
O2288       O  0.76262296  0.19850266  0.95458682    -1.00320
C2289       C  0.69097941  0.32144506  0.94378560     1.22820
O2290       O  0.73363137  0.30251152  0.51642480    -1.35220
Mn2291     Mn  0.74090190  0.25135136  0.54055875     1.82050
O2292       O  0.71713850  0.30246691  0.93417394    -0.77310
O2293       O  0.66932740  0.24332304  0.93310028    -0.86710
C2294       C  0.66391937  0.25240936  0.56019273     1.13910
C2295       C  0.66966364  0.21104377  0.92324964     1.08630
O2296       O  0.76956993  0.26487728  0.58680819    -0.78250
O2297       O  0.71571437  0.23828159  0.99280206    -1.31940
O2298       O  0.80202298  0.30048960  0.55576571    -0.97460
C2299       C  0.70785624  0.39402146  0.00175251     1.07340
Mn2300     Mn  0.66280348  0.25652502  0.98445913     1.48570
O2301       O  0.74050043  0.38182511  0.00447260    -0.86660
Mn2302     Mn  0.82737134  0.28220471  0.51381285     1.49560
O2303       O  0.84165074  0.18863684  0.02003667    -0.90540
C2304       C  0.76452391  0.20982795  0.92448165     1.20540
C2305       C  0.86474652  0.20737487  0.53466961     1.12590
Mn2306     Mn  0.75185510  0.27583544  0.96666779     1.80970
O2307       O  0.66016451  0.27113177  0.53286230    -0.95690
Mn2308     Mn  0.80128190  0.19673641  0.98587975     1.49260
C2309       C  0.85071094  0.25015289  0.94095086     1.09110
Mn2310     Mn  0.67937495  0.32004114  0.52403075     1.49930
C2311       C  0.71191330  0.34803047  0.59156066     1.12020
O2312       O  0.79578534  0.31876916  0.99537461    -1.01490
O2313       O  0.64204898  0.20360281  0.99789088    -0.91150
C2314       C  0.80329891  0.33364562  0.96832651     1.23300
O2315       O  0.67309246  0.31084723  0.97137524    -1.01880
O2316       O  0.68487868  0.16832307  0.02008577    -0.89280
O2317       O  0.68623767  0.33025601  0.57851315    -0.88880
O2318       O  0.86298445  0.24179274  0.53584655    -0.88910
Mn2319     Mn  0.72358587  0.18288369  0.98349007     1.47860
O2320       O  0.69476880  0.24904634  0.57256554    -0.77380
C2321       C  0.79766067  0.28343282  0.58339710     1.16350
O2322       O  0.76357638  0.24399453  0.91988148    -0.76110
O2323       O  0.74768189  0.20197559  0.56396385    -0.75730
Mn2324     Mn  0.76954719  0.33849887  0.53352402     1.51060
O2325       O  0.68639662  0.37377320  0.51737139    -0.88080
O2326       O  0.76458408  0.17351855  0.01813257    -0.95610
O2327       O  0.74305669  0.35050073  0.57818124    -0.90620
C2328       C  0.76303040  0.17557184  0.55082127     1.14140
C2329       C  0.79465709  0.16267419  0.60764385     0.24510
C2330       C  0.77954941  0.14924998  0.57661624    -0.23600
C2331       C  0.77550238  0.11182589  0.57443562     0.19420
C2332       C  0.78329033  0.08877653  0.60376050     0.24450
C2333       C  0.79590600  0.10247972  0.63587421    -0.23540
C2334       C  0.80296373  0.13957519  0.63666728     0.19350
F2335       F  0.81492936  0.15402850  0.66667652    -0.13500
F2336       F  0.80083660  0.19861951  0.61017133    -0.15860
F2337       F  0.77431187  0.05352023  0.60187473    -0.15870
F2338       F  0.76012887  0.09795388  0.54568915    -0.13500
C2339       C  0.69756463  0.39228286  0.67869855     0.24510
C2340       C  0.70505449  0.42883419  0.66807171    -0.23600
C2341       C  0.71414660  0.43744551  0.63292743     0.19420
C2342       C  0.71740075  0.41012676  0.60921318     0.24450
C2343       C  0.70585628  0.37464259  0.61841147    -0.23540
C2344       C  0.69613361  0.36559381  0.65339542     0.19350
F2345       F  0.68790794  0.33091683  0.66336062    -0.13500
F2346       F  0.68989943  0.38274598  0.71310637    -0.15860
F2347       F  0.73458859  0.41789374  0.57772893    -0.15870
F2348       F  0.72257742  0.47176507  0.62192520    -0.13500
C2349       C  0.65418504  0.39112815  0.87103338     0.24510
C2350       C  0.68605159  0.40954028  0.85962355    -0.23600
C2351       C  0.71714369  0.39900982  0.87754266     0.19420
C2352       C  0.71638270  0.37442950  0.90705806     0.24450
C2353       C  0.68535998  0.35521665  0.91872862    -0.23540
C2354       C  0.65444692  0.36319511  0.89882768     0.19350
F2355       F  0.62541012  0.34224108  0.90482112    -0.13500
F2356       F  0.62338483  0.39837901  0.85375383    -0.15860
F2357       F  0.74753881  0.36774980  0.92325953    -0.15870
F2358       F  0.74931556  0.41129947  0.86549935    -0.13500
C2359       C  0.79305380  0.11946732  0.89237188     0.24510
C2360       C  0.76595168  0.11292856  0.86878298    -0.23600
C2361       C  0.74440274  0.14233223  0.85661400     0.19420
C2362       C  0.74759462  0.17679038  0.87079195     0.24450
C2363       C  0.77154432  0.18192151  0.89800228    -0.23540
C2364       C  0.79524701  0.15305336  0.90753987     0.19350
F2365       F  0.81811654  0.15566873  0.93462030    -0.13500
F2366       F  0.81526549  0.09230549  0.90358951    -0.15860
F2367       F  0.72496005  0.20389795  0.86046792    -0.15870
F2368       F  0.71979328  0.13782474  0.83153718    -0.13500
C2369       C  0.86477845  0.09601273  0.78094427     0.24510
C2370       C  0.83062499  0.10938386  0.76988124    -0.23600
C2371       C  0.83006654  0.14284789  0.75139258     0.19420
C2372       C  0.86199192  0.16222778  0.74421410     0.24450
C2373       C  0.89605733  0.14990730  0.75659515    -0.23540
C2374       C  0.89681191  0.11600846  0.77465036     0.19350
F2375       F  0.92808348  0.10291426  0.78771628    -0.13500
F2376       F  0.86720068  0.06338378  0.79850594    -0.15860
F2377       F  0.85935311  0.19353308  0.72451038    -0.15870
F2378       F  0.79870134  0.15630298  0.73883783    -0.13500
C2379       C  0.85626342  0.43750489  0.74499422     0.24510
C2380       C  0.82288665  0.42612626  0.75822164    -0.23600
C2381       C  0.81263845  0.38957677  0.75530514     0.19420
C2382       C  0.83587985  0.36505489  0.73947353     0.24450
C2383       C  0.86854344  0.37717157  0.72516190    -0.23540
C2384       C  0.87757979  0.41396025  0.72592404     0.19350
F2385       F  0.91013029  0.42555667  0.71357060    -0.13500
F2386       F  0.86877193  0.47095170  0.75167000    -0.15860
F2387       F  0.82817549  0.32913984  0.74106740    -0.15870
F2388       F  0.78099941  0.37717888  0.76924713    -0.13500
C2389       C  0.62183502  0.17876485  0.71507766     0.24510
C2390       C  0.59328059  0.16915633  0.73905324    -0.23600
C2391       C  0.59393074  0.13384852  0.75331455     0.19420
C2392       C  0.62229103  0.10992273  0.74575651     0.24450
C2393       C  0.64769705  0.11608992  0.71795723    -0.23540
C2394       C  0.64838108  0.15251531  0.70447407     0.19350
F2395       F  0.67544534  0.16316167  0.68196048    -0.13500
F2396       F  0.62371427  0.21312939  0.70123445    -0.15860
F2397       F  0.62659887  0.08180976  0.76856756    -0.15870
F2398       F  0.56736640  0.12259622  0.77618784    -0.13500
C2399       C  0.55256149  0.36873894  0.73291004     0.24510
C2400       C  0.56145251  0.35104134  0.70166896    -0.23600
C2401       C  0.59088947  0.36418950  0.68151920     0.19420
C2402       C  0.60852816  0.39570427  0.69171298     0.24450
C2403       C  0.60254203  0.40975405  0.72595555    -0.23540
C2404       C  0.57368540  0.39601169  0.74605101     0.19350
F2405       F  0.56396931  0.41135077  0.77697559    -0.13500
F2406       F  0.52279462  0.35932913  0.75085248    -0.15860
F2407       F  0.62961082  0.41340987  0.66733724    -0.15870
F2408       F  0.60201639  0.34726034  0.65179607    -0.13500
C2409       C  0.85283657  0.26997457  0.66647652     0.24510
C2410       C  0.88820677  0.27586275  0.65249548    -0.23600
C2411       C  0.89265542  0.28488848  0.61676192     0.19420
C2412       C  0.86296944  0.28941493  0.59571450     0.24450
C2413       C  0.82776652  0.28203946  0.60861717    -0.23540
C2414       C  0.82308780  0.27216908  0.64447023     0.19350
F2415       F  0.78984414  0.26558693  0.65841709    -0.13500
F2416       F  0.84665544  0.26258986  0.70153927    -0.15860
F2417       F  0.86947224  0.30008263  0.56192303    -0.15870
F2418       F  0.92588911  0.28865312  0.60179234    -0.13500
C2419       C  0.59806658  0.24970110  0.57519338     0.24510
C2420       C  0.63263714  0.23509789  0.57908165    -0.23600
C2421       C  0.63676857  0.20330127  0.60077899     0.19420
C2422       C  0.60767191  0.18928367  0.62124321     0.24450
C2423       C  0.57487042  0.20786891  0.62176438    -0.23540
C2424       C  0.56958320  0.23620154  0.59619097     0.19350
F2425       F  0.53743248  0.25367896  0.59446425    -0.13500
F2426       F  0.59223496  0.27901064  0.55326665    -0.15860
F2427       F  0.61178534  0.15855375  0.64134932    -0.15870
F2428       F  0.66903653  0.18616783  0.60262511    -0.13500
C2429       C  0.63983041  0.23410789  0.86948572     0.24510
C2430       C  0.64593707  0.20471813  0.89351136    -0.23600
C2431       C  0.62015208  0.17737138  0.89712540     0.19420
C2432       C  0.58634217  0.18273656  0.88232697     0.24450
C2433       C  0.57863572  0.21490436  0.86266765    -0.23540
C2434       C  0.60638496  0.23927963  0.85448123     0.19350
F2435       F  0.60114830  0.26827738  0.83212935    -0.13500
F2436       F  0.66516205  0.25995974  0.86359287    -0.15860
F2437       F  0.56066301  0.15733433  0.88843827    -0.15870
F2438       F  0.62661262  0.14703964  0.91732065    -0.13500
C2439       C  0.88669918  0.29314655  0.90167708     0.24510
C2440       C  0.86529049  0.26183977  0.90551687    -0.23600
C2441       C  0.85406773  0.24536924  0.87471969     0.19420
C2442       C  0.86525626  0.25839299  0.84123162     0.24450
C2443       C  0.88909621  0.28769269  0.83771073    -0.23540
C2444       C  0.89811052  0.30609678  0.86819894     0.19350
F2445       F  0.92010652  0.33523515  0.86588399    -0.13500
F2446       F  0.89793994  0.31068285  0.93035267    -0.15860
F2447       F  0.85527996  0.23996294  0.81257806    -0.15870
F2448       F  0.83354969  0.21548440  0.87667718    -0.13500
C2449       C  0.83456584  0.42476406  0.99260881     0.24510
C2450       C  0.85870255  0.41307827  0.51975926    -0.23600
C2451       C  0.85658351  0.37695657  0.52747956     0.19420
C2452       C  0.85489397  0.35446811  0.49864440     0.24450
C2453       C  0.83026725  0.36278817  0.97144791    -0.23540
C2454       C  0.81915181  0.39959469  0.96976056     0.19350
F2455       F  0.79204187  0.41059630  0.94873754    -0.13500
F2456       F  0.82365505  0.45976799  0.99131932    -0.15860
F2457       F  0.87183202  0.32216961  0.50036605    -0.15870
F2458       F  0.85674384  0.36493028  0.56170784    -0.13500
C2459       C  0.92964870  0.19246574  0.02888182     0.24510
C2460       C  0.89628298  0.18602216  0.54600663    -0.23600
C2461       C  0.88904034  0.15057208  0.55841262     0.19420
C2462       C  0.90834082  0.12155146  0.54527744     0.24450
C2463       C  0.93905121  0.12729717  0.52349397    -0.23540
C2464       C  0.95188734  0.16313249  0.01922541     0.19350
F2465       F  0.98490099  0.16998152  0.00483809    -0.13500
F2466       F  0.93877914  0.22667341  0.01807865    -0.15860
F2467       F  0.89646499  0.08763787  0.55407085    -0.15870
F2468       F  0.85912113  0.14337888  0.57800301    -0.13500
C2469       C  0.65690250  0.42445396  0.54702340     0.24510
C2470       C  0.66520777  0.39731671  0.52025839    -0.23600
C2471       C  0.63092757  0.39030708  0.00149778     0.19420
C2472       C  0.59649286  0.39397575  0.51818066     0.24450
C2473       C  0.59037549  0.41677352  0.54717613    -0.23540
C2474       C  0.62163180  0.43172349  0.56108998     0.19350
F2475       F  0.61773988  0.45841649  0.58475656    -0.13500
F2476       F  0.68240376  0.44854583  0.55447958    -0.15860
F2477       F  0.56917441  0.38238743  0.99948895    -0.15870
F2478       F  0.63232047  0.37380001  0.97019914    -0.13500
C2479       C  0.64121596  0.10742038  0.52732367     0.24510
C2480       C  0.62956269  0.14110958  0.01222734    -0.23600
C2481       C  0.59984995  0.14160333  0.99032621     0.19420
C2482       C  0.58439630  0.10942235  0.98098347     0.24450
C2483       C  0.59634088  0.07568070  0.99515811    -0.23540
C2484       C  0.62439544  0.07499834  0.51912456     0.19350
F2485       F  0.63451536  0.04336391  0.53556846    -0.13500
F2486       F  0.66886684  0.10586834  0.55005439    -0.15860
F2487       F  0.55723383  0.11176468  0.95792949    -0.15870
F2488       F  0.58666171  0.17314028  0.97603351    -0.13500
C2489       C  0.80954738  0.00560174  0.92445768     0.24510
C2490       C  0.80511863  0.47735417  0.90081785    -0.23600
C2491       C  0.83380435  0.45332132  0.89416436     0.19420
C2492       C  0.86695949  0.45823506  0.90929948     0.24450
C2493       C  0.87241956  0.48754285  0.93140019    -0.23540
C2494       C  0.84306996  0.01124701  0.93921387     0.19350
F2495       F  0.84698406  0.03954062  0.96080898    -0.13500
F2496       F  0.78226496  0.02910835  0.93129219    -0.15860
F2497       F  0.89368435  0.43413225  0.90217847    -0.15870
F2498       F  0.82999050  0.42552956  0.87189221    -0.13500
C2499       C  0.64104115  0.05681891  0.88194391     0.24510
C2500       C  0.64202345  0.08119585  0.85246777    -0.23600
C2501       C  0.60954995  0.09658940  0.84235492     0.19420
C2502       C  0.57741881  0.07860249  0.85121167     0.24450
C2503       C  0.57819445  0.04642111  0.87246844    -0.23540
C2504       C  0.61065723  0.03595948  0.88804624     0.19350
F2505       F  0.61197292  0.50778446  0.91172898    -0.13500
F2506       F  0.67162381  0.04633219  0.89814270    -0.15860
F2507       F  0.54565456  0.09416889  0.84226688    -0.15870
F2508       F  0.60960327  0.12955221  0.82559801    -0.13500
C2509       C  0.55146307  0.06749328  0.66166807     0.24510
C2510       C  0.55603636  0.03559993  0.64253921    -0.23600
C2511       C  0.55294450  0.00223302  0.66229193     0.19420
C2512       C  0.55055541  0.00135217  0.69965669     0.24450
C2513       C  0.55549770  0.03293340  0.71856313    -0.23540
C2514       C  0.54910867  0.06579599  0.69909550     0.19350
F2515       F  0.54435510  0.09694814  0.71638022    -0.13500
F2516       F  0.54964545  0.10034058  0.64448384    -0.15860
F2517       F  0.54947841  0.46867434  0.71738074    -0.15870
F2518       F  0.55327688  0.46994809  0.64574174    -0.13500
C2519       C  0.83119433  0.98209933  0.60354678     0.24510
C2520       C  0.83323780  0.98428500  0.64031980    -0.23600
C2521       C  0.86775643  0.98488355  0.65524025     0.19420
C2522       C  0.89906434  0.98045282  0.63459836     0.24450
C2523       C  0.89706557  0.97914480  0.59784333    -0.23540
C2524       C  0.86267085  0.98103072  0.58253573     0.19350
F2525       F  0.85944889  0.98428228  0.54691827    -0.13500
F2526       F  0.79893299  0.98275017  0.58772330    -0.15860
F2527       F  0.93137861  0.98183436  0.65018691    -0.15870
F2528       F  0.87162318  0.99424699  0.68919393    -0.13500
C2529       C  0.90593869  0.11854630  0.87753840     0.24510
C2530       C  0.93101759  0.11568999  0.90449333    -0.23600
C2531       C  0.93847550  0.14724759  0.92326124     0.19420
C2532       C  0.92707218  0.18118397  0.91109457     0.24450
C2533       C  0.91385930  0.18389420  0.87707773    -0.23540
C2534       C  0.89618677  0.15335785  0.86455529     0.19350
F2535       F  0.87585500  0.15707183  0.83543834    -0.13500
F2536       F  0.89482687  0.08867598  0.86118690    -0.15860
F2537       F  0.94008075  0.21098479  0.92641447    -0.15870
F2538       F  0.46251274  0.14641134  0.94907702    -0.13500
C2539       C  0.01442090  0.41461624  0.85788316     0.24510
C2540       C  0.53193324  0.41009815  0.89086999    -0.23600
C2541       C  0.55155639  0.37707656  0.89545697     0.19420
C2542       C  0.55372628  0.35009214  0.86841293     0.24450
C2543       C  0.53650505  0.35485476  0.83533924    -0.23540
C2544       C  0.01579006  0.38780250  0.83168758     0.19350
F2545       F  0.99463572  0.39335220  0.80325564    -0.13500
F2546       F  0.99359625  0.44444219  0.85170080    -0.15860
F2547       F  0.56940150  0.31764239  0.87620084    -0.15870
F2548       F  0.56583323  0.36933442  0.92749719    -0.13500
C2549       C  0.94307296  0.37003785  0.60850931     0.24510
C2550       C  0.47590975  0.37026539  0.63403373    -0.23600
C2551       C  0.50992473  0.36929743  0.61133093     0.19420
C2552       C  0.51150746  0.36127426  0.57471640     0.24450
C2553       C  0.48115619  0.36054030  0.55293852    -0.23540
C2554       C  0.94715301  0.36053320  0.57202976     0.19350
F2555       F  0.91876247  0.35054065  0.55393689    -0.13500
F2556       F  0.90939141  0.37424862  0.62212257    -0.15860
F2557       F  0.54419444  0.35504113  0.55992409    -0.15870
F2558       F  0.54127092  0.37510593  0.62717172    -0.13500
C2559       C  0.93015915  0.13104694  0.63450015     0.24510
C2560       C  0.95180825  0.16075419  0.62376353    -0.23600
C2561       C  0.47874797  0.15603644  0.59823240     0.19420
C2562       C  0.48869334  0.12156756  0.58874705     0.24450
C2563       C  0.96868153  0.09074138  0.60064776    -0.23540
C2564       C  0.93852545  0.09629753  0.62288520     0.19350
F2565       F  0.91787072  0.06793140  0.63426564    -0.13500
F2566       F  0.90291598  0.13523610  0.65855928    -0.15860
F2567       F  0.52017742  0.12001827  0.57099532    -0.15870
F2568       F  0.49944681  0.18416195  0.58613468    -0.13500
O2569       O  0.54896710  0.54904082  0.42463576    -0.87260
C2570       C  0.97769866  0.55357246  0.09035055     1.12780
O2571       O  0.49111876  0.52080401  0.46003482    -1.35070
O2572       O  0.55782681  0.56520516  0.08322521    -0.88750
O2573       O  0.51976513  0.02041632  0.38300596    -0.89410
O2574       O  0.54423945  0.95066970  0.44251659    -0.78240
O2575       O  0.54120319  0.54938913  0.50063289    -1.00320
C2576       C  0.55790733  0.94105533  0.04249288     1.22820
O2577       O  0.97696525  0.96128927  0.99931253    -1.35220
Mn2578     Mn  0.95744675  0.51381450  0.00402797     1.82060
O2579       O  0.55996750  0.95705726  0.01343902    -0.77310
O2580       O  0.55729926  0.50666522  0.08728564    -0.86710
C2581       C  0.92927396  0.48370191  0.07439277     1.13910
C2582       C  0.55922516  0.53606298  0.10247979     1.08630
O2583       O  0.91009321  0.50919284  0.47616964    -0.78250
O2584       O  0.50636555  0.51903928  0.03286947    -1.31940
O2585       O  0.93416802  0.97718006  0.43625199    -0.97460
C2586       C  0.98381842  0.87579479  0.01409952     1.07340
Mn2587     Mn  0.50704599  0.48679041  0.08389161     1.48570
O2588       O  0.96168098  0.87694822  0.48853867    -0.86660
Mn2589     Mn  0.97403507  0.00030234  0.41189288     1.49560
O2590       O  0.98553326  0.59170855  0.42076123    -0.90540
C2591       C  0.57221878  0.54456356  0.49358565     1.20540
C2592       C  0.95490236  0.58377153  0.40999774     1.12590
Mn2593     Mn  0.52702893  0.98697705  0.48654890     1.80970
O2594       O  0.95845800  0.96634955  0.07934087    -0.95690
Mn2595     Mn  0.51501904  0.56957883  0.46090917     1.49260
C2596       C  0.54647576  0.53790604  0.39383255     1.09110
Mn2597     Mn  0.97831987  0.93113939  0.04656753     1.49930
C2598       C  0.89704518  0.92230373  0.01389082     1.12020
O2599       O  0.99183032  0.94817959  0.42353900    -1.01490
O2600       O  0.48270627  0.52848991  0.11306189    -0.91150
C2601       C  0.52259604  0.93708580  0.42082888     1.23300
O2602       O  0.52911472  0.94287776  0.06104143    -1.01880
O2603       O  0.48615872  0.54491686  0.05919088    -0.89280
O2604       O  0.92104918  0.91939304  0.03784966    -0.88900
O2605       O  0.94584889  0.55109698  0.40392865    -0.88910
Mn2606     Mn  0.52292885  0.57765762  0.03817747     1.47860
O2607       O  0.92549784  0.50418730  0.04750856    -0.77380
C2608       C  0.90748280  0.99275086  0.44785907     1.16350
O2609       O  0.57781851  0.51510109  0.47906358    -0.76110
O2610       O  0.93921161  0.56636639  0.50709832    -0.75730
Mn2611     Mn  0.95256754  0.93124231  0.45827107     1.51060
O2612       O  0.00472184  0.90059124  0.01113326    -0.88080
O2613       O  0.48942052  0.59388240  0.50044237    -0.95610
O2614       O  0.90523692  0.92737628  0.48211018    -0.90620
C2615       C  0.95698664  0.59490434  0.50791916     1.14140
O2616       O  0.53325004  0.69466227  0.32799413    -0.87260
C2617       C  0.95798480  0.68971522  0.14839464     1.12780
O2618       O  0.98499053  0.74164964  0.28571096    -1.35070
O2619       O  0.53488505  0.68233369  0.16892573    -0.88750
O2620       O  0.52691638  0.75110334  0.34915257    -0.89410
O2621       O  0.55034256  0.80252004  0.29188540    -0.78240
O2622       O  0.53131364  0.68144351  0.25119460    -1.00320
C2623       C  0.54518213  0.81492009  0.19681508     1.22820
O2624       O  0.97495842  0.79845598  0.24106942    -1.35220
Mn2625     Mn  0.94718213  0.75333865  0.24676147     1.82060
O2626       O  0.55783751  0.79033487  0.21611289    -0.77310
O2627       O  0.54679531  0.74075525  0.16475937    -0.86710
C2628       C  0.91982866  0.77322903  0.17558249     1.13910
C2629       C  0.55175198  0.70934036  0.15411630     1.08630
O2630       O  0.90615667  0.77282780  0.27930146    -0.78250
O2631       O  0.49156179  0.73672247  0.21529232    -1.31940
O2632       O  0.94172673  0.80553377  0.30734471    -0.97460
C2633       C  0.47561025  0.88670745  0.17799655     1.07340
Mn2634     Mn  0.49687091  0.76239241  0.16456284     1.48570
O2635       O  0.97375897  0.87889542  0.21389684    -0.86660
Mn2636     Mn  0.97893455  0.77530221  0.32918792     1.49560
O2637       O  0.95451584  0.68247263  0.32988660    -0.90540
C2638       C  0.56199113  0.69418252  0.24871593     1.20540
C2639       C  0.93874141  0.70265112  0.35205014     1.12590
Mn2640     Mn  0.52296783  0.76633363  0.25190927     1.80970
O2641       O  0.94965272  0.78630228  0.16715228    -0.95690
Mn2642     Mn  0.49457052  0.68456119  0.29155358     1.49260
C2643       C  0.54374213  0.72072482  0.34610957     1.09110
Mn2644     Mn  0.96886245  0.82487537  0.19599840     1.49930
C2645       C  0.89906080  0.85382366  0.22864243     1.12020
O2646       O  0.99884506  0.81774894  0.30338647    -1.01490
O2647       O  0.47549759  0.71774711  0.13859244    -0.91150
C2648       C  0.52953107  0.82427128  0.30870175     1.23300
O2649       O  0.51640674  0.80912566  0.18211065    -1.01880
O2650       O  0.45324282  0.68092452  0.18058149    -0.89280
O2651       O  0.91520456  0.84175670  0.20204635    -0.88880
O2652       O  0.94653656  0.73589508  0.35616171    -0.88910
Mn2653     Mn  0.49563751  0.67986359  0.21375380     1.47860
O2654       O  0.91366424  0.76196004  0.20660448    -0.77380
C2655       C  0.91223932  0.79149231  0.30560822     1.16350
O2656       O  0.56599795  0.72758458  0.25500971    -0.76110
O2657       O  0.91786805  0.70853512  0.25302520    -0.75730
Mn2658     Mn  0.96357913  0.84137700  0.26894708     1.51060
O2659       O  0.97163187  0.86024678  0.16045814    -0.88080
O2660       O  0.96023638  0.66975692  0.25465991    -0.95610
O2661       O  0.91258997  0.85302117  0.25840017    -0.90620
C2662       C  0.92727143  0.67641587  0.25466956     1.14140
O2663       O  0.78691701  0.55654662  0.34834892    -0.87260
C2664       C  0.80065617  0.49004083  0.16357325     1.12780
O2665       O  0.73792712  0.51463456  0.30359475    -1.35070
O2666       O  0.80957473  0.56264312  0.18738912    -0.88750
O2667       O  0.72795338  0.56362540  0.35968771    -0.89410
O2668       O  0.68731024  0.58545199  0.30521284    -0.78240
O2669       O  0.80402851  0.55285163  0.27151603    -1.00320
C2670       C  0.67978422  0.58988398  0.21440658     1.22820
O2671       O  0.67926989  0.51332041  0.25946375    -1.35220
Mn2672     Mn  0.72341106  0.47868886  0.26498445     1.82050
O2673       O  0.70468706  0.59616508  0.23425020    -0.77310
O2674       O  0.75411449  0.58169358  0.17747868    -0.86710
C2675       C  0.70634654  0.95709647  0.19389354     1.13910
C2676       C  0.78695130  0.58216850  0.16961479     1.08630
O2677       O  0.70419116  0.93496165  0.30039474    -0.78250
O2678       O  0.74740922  0.52258270  0.23194637    -1.31940
O2679       O  0.67655218  0.97015238  0.33413596    -0.97460
C2680       C  0.58931179  0.53142566  0.23879742     1.07340
Mn2681     Mn  0.72773743  0.53374408  0.18061703     1.48570
O2682       O  0.59412865  0.51685593  0.26991796    -0.86660
Mn2683     Mn  0.70474107  0.51324792  0.34937568     1.49560
O2684       O  0.78390552  0.47375849  0.34407313    -0.90540
C2685       C  0.79801788  0.58502880  0.27215904     1.20540
C2686       C  0.77553867  0.47919818  0.37574590     1.12590
Mn2687     Mn  0.72057111  0.55596988  0.26873589     1.80970
O2688       O  0.69925937  0.48929472  0.18629675    -0.95690
Mn2689     Mn  0.79359308  0.51669378  0.30997832     1.49260
C2690       C  0.75986922  0.57557736  0.35803263     1.09110
Mn2691     Mn  0.65803572  0.51443250  0.20718286     1.49930
C2692       C  0.62149488  0.94238636  0.23798936     1.12020
O2693       O  0.66601602  0.53476788  0.32189491    -1.01490
O2694       O  0.77307177  0.50804529  0.15351831    -0.91150
C2695       C  0.66416214  0.56748328  0.32327314     1.23300
O2696       O  0.68204343  0.56091695  0.19727721    -1.01880
O2697       O  0.80375606  0.48120228  0.19553270    -0.89280
O2698       O  0.63127042  0.96536100  0.21394037    -0.88880
O2699       O  0.74390705  0.98966719  0.38402954    -0.88910
Mn2700     Mn  0.80388687  0.52146801  0.23102157     1.47860
O2701       O  0.71142679  0.94682191  0.22520999    -0.77380
C2702       C  0.68835439  0.93946319  0.32989161     1.16350
O2703       O  0.76500786  0.59462169  0.27444129    -0.76110
O2704       O  0.76480348  0.94420489  0.26953962    -0.75730
Mn2705     Mn  0.64127308  0.99463108  0.29854585     1.51060
O2706       O  0.61509956  0.54269781  0.22037605    -0.88080
O2707       O  0.80364162  0.48530319  0.27045656    -0.95610
O2708       O  0.62591204  0.94715456  0.27138391    -0.90620
C2709       C  0.79652304  0.45322971  0.26836463     1.14140
O2710       O  0.83645003  0.71947339  0.44615196    -0.87260
C2711       C  0.65282610  0.67339442  0.51183095     1.12780
O2712       O  0.78637528  0.74830241  0.50383101    -1.35070
O2713       O  0.68544003  0.68535635  0.44072473    -0.88750
O2714       O  0.85100951  0.77348846  0.46465975    -0.89410
O2715       O  0.78994731  0.81813515  0.44319647    -0.78240
O2716       O  0.76276482  0.69866128  0.45453716    -1.00320
C2717       C  0.69113424  0.82151454  0.44373972     1.22820
O2718       O  0.73402937  0.80253131  0.01635669    -1.35220
Mn2719     Mn  0.74115016  0.75132384  0.04049345     1.82050
O2720       O  0.71737517  0.80262452  0.43419486    -0.77310
O2721       O  0.66951903  0.74343776  0.43298339    -0.86710
C2722       C  0.66416967  0.75260212  0.06015928     1.13910
C2723       C  0.66982030  0.71117432  0.42310908     1.08630
O2724       O  0.76981000  0.76474482  0.08677294    -0.78250
O2725       O  0.71582758  0.73834618  0.49272426    -1.31940
O2726       O  0.80233869  0.80026776  0.05573635    -0.97460
C2727       C  0.70811143  0.89414827  0.50189774     1.07340
Mn2728     Mn  0.66291723  0.75656576  0.48434654     1.48570
O2729       O  0.74074211  0.88200100  0.50485668    -0.86660
Mn2730     Mn  0.82772480  0.78198214  0.01384419     1.49560
O2731       O  0.84167735  0.68859063  0.52008151    -0.90540
C2732       C  0.76470484  0.71000930  0.42444312     1.20540
C2733       C  0.86489972  0.70713691  0.03464004     1.12590
Mn2734     Mn  0.75201484  0.77596681  0.46671534     1.80970
O2735       O  0.66046112  0.77132840  0.03282052    -0.95690
Mn2736     Mn  0.80138317  0.69681124  0.48587807     1.49260
C2737       C  0.85084168  0.75031388  0.44106301     1.09110
Mn2738     Mn  0.67982502  0.82019421  0.02387192     1.49930
C2739       C  0.71243488  0.84814133  0.09145005     1.12020
O2740       O  0.79591265  0.81892295  0.49561280    -1.01490
O2741       O  0.64213929  0.70360162  0.49773431    -0.91150
C2742       C  0.80334494  0.83391792  0.46859925     1.23300
O2743       O  0.67321909  0.81088350  0.47129633    -1.01880
O2744       O  0.68498506  0.66832406  0.51990659    -0.89280
O2745       O  0.68672456  0.83048316  0.07832910    -0.88880
O2746       O  0.86313234  0.74152966  0.03599949    -0.88910
Mn2747     Mn  0.72370751  0.68295957  0.48336313     1.47860
O2748       O  0.69501761  0.74913191  0.07250961    -0.77380
C2749       C  0.79792489  0.78325339  0.08337468     1.16350
O2750       O  0.76382182  0.74418707  0.41988172    -0.76110
O2751       O  0.74781786  0.70191454  0.06386694    -0.75730
Mn2752     Mn  0.77009055  0.83841585  0.03350157     1.51060
O2753       O  0.68710805  0.87386923  0.01695727    -0.88080
O2754       O  0.76465753  0.67354049  0.51804789    -0.95610
O2755       O  0.74362257  0.85049858  0.07815263    -0.90620
C2756       C  0.76319151  0.67552772  0.05071583     1.14140
C2757       C  0.79487173  0.66261945  0.10749299     0.24510
C2758       C  0.77970463  0.64920204  0.07649341    -0.23600
C2759       C  0.77553388  0.61179260  0.07435580     0.19420
C2760       C  0.78321448  0.58876397  0.10371551     0.24450
C2761       C  0.79583604  0.60247442  0.13582015    -0.23540
C2762       C  0.80305931  0.63953774  0.13656305     0.19350
F2763       F  0.81505429  0.65398990  0.16656164    -0.13500
F2764       F  0.80118410  0.69854546  0.10995758    -0.15860
F2765       F  0.77412258  0.55353860  0.10186324    -0.15870
F2766       F  0.76013210  0.59793091  0.04561958    -0.13500
C2767       C  0.69698834  0.89247550  0.17843811     0.24510
C2768       C  0.70483794  0.92896488  0.16791002    -0.23600
C2769       C  0.71449128  0.93751808  0.13289343     0.19420
C2770       C  0.71811912  0.91016976  0.10925941     0.24450
C2771       C  0.70635760  0.87473258  0.11831283    -0.23540
C2772       C  0.69592357  0.86576398  0.15312988     0.19350
F2773       F  0.68738955  0.83113362  0.16297736    -0.13500
F2774       F  0.68875822  0.88301668  0.21274742    -0.15860
F2775       F  0.73571090  0.91790518  0.07798099    -0.15870
F2776       F  0.72307212  0.97181516  0.12197036    -0.13500
C2777       C  0.65425259  0.89099444  0.37088481     0.24510
C2778       C  0.68608555  0.90945895  0.35947594    -0.23600
C2779       C  0.71718759  0.89903622  0.37743439     0.19420
C2780       C  0.71645444  0.87452808  0.40700406     0.24450
C2781       C  0.68546587  0.85523256  0.41864368    -0.23540
C2782       C  0.65455096  0.86310012  0.39870763     0.19350
F2783       F  0.62552418  0.84213359  0.40475157    -0.13500
F2784       F  0.62344876  0.89817154  0.35358917    -0.15860
F2785       F  0.74759983  0.86802820  0.42330555    -0.15870
F2786       F  0.74934225  0.91135834  0.36537946    -0.13500
C2787       C  0.79309864  0.61959495  0.39235578     0.24510
C2788       C  0.76596525  0.61306091  0.36879556    -0.23600
C2789       C  0.74441289  0.64247386  0.35665340     0.19420
C2790       C  0.74766849  0.67694824  0.37079195     0.24450
C2791       C  0.77167806  0.68209338  0.39795065    -0.23540
C2792       C  0.79535660  0.65320132  0.40748301     0.19350
F2793       F  0.81827526  0.65582767  0.43452206    -0.13500
F2794       F  0.81528434  0.59241609  0.40358535    -0.15860
F2795       F  0.72504411  0.70406778  0.36047922    -0.15870
F2796       F  0.71972968  0.63795226  0.33164691    -0.13500
C2797       C  0.86476319  0.59605761  0.28090773     0.24510
C2798       C  0.83061333  0.60943490  0.26983631    -0.23600
C2799       C  0.83006873  0.64289426  0.25133802     0.19420
C2800       C  0.86200088  0.66226555  0.24416219     0.24450
C2801       C  0.89606043  0.64993933  0.25654910    -0.23540
C2802       C  0.89680360  0.61604370  0.27461216     0.19350
F2803       F  0.92807003  0.60294662  0.28768845    -0.13500
F2804       F  0.86717566  0.56343325  0.29847983    -0.15860
F2805       F  0.85937622  0.69356893  0.22445502    -0.15870
F2806       F  0.79871046  0.65635186  0.23876985    -0.13500
C2807       C  0.85627024  0.93750933  0.24502729     0.24510
C2808       C  0.82289696  0.92610655  0.25824905    -0.23600
C2809       C  0.81268180  0.88954670  0.25534818     0.19420
C2810       C  0.83595392  0.86503541  0.23954441     0.24450
C2811       C  0.86861372  0.87717566  0.22524528    -0.23540
C2812       C  0.87761379  0.91397285  0.22597839     0.19350
F2813       F  0.91015257  0.92559216  0.21361208    -0.13500
F2814       F  0.86874587  0.97097469  0.25167963    -0.15860
F2815       F  0.82827441  0.82911490  0.24113899    -0.15870
F2816       F  0.78104179  0.87713446  0.26927402    -0.13500
C2817       C  0.62192329  0.67892391  0.21497826     0.24510
C2818       C  0.59332030  0.66939189  0.23892447    -0.23600
C2819       C  0.59387185  0.63407745  0.25318523     0.19420
C2820       C  0.62218255  0.61007855  0.24566900     0.24450
C2821       C  0.64764970  0.61618579  0.21791356    -0.23540
C2822       C  0.64842693  0.65260833  0.20441963     0.19350
F2823       F  0.67554030  0.66318609  0.18193421    -0.13500
F2824       F  0.62388720  0.71327471  0.20111236    -0.15860
F2825       F  0.62640809  0.58198834  0.26852534    -0.15870
F2826       F  0.56727804  0.62289588  0.27605849    -0.13500
C2827       C  0.55211599  0.86906459  0.23249547     0.24510
C2828       C  0.56077880  0.85156803  0.20109858    -0.23600
C2829       C  0.58988705  0.86500755  0.18065363     0.19420
C2830       C  0.60779236  0.89630977  0.19104573     0.24450
C2831       C  0.60213732  0.91003510  0.22549384    -0.23540
C2832       C  0.57337169  0.89620634  0.24567319     0.19350
F2833       F  0.56390298  0.91129761  0.27678556    -0.13500
F2834       F  0.52242006  0.85958406  0.25053717    -0.15860
F2835       F  0.62896239  0.91403722  0.16674186    -0.15870
F2836       F  0.60038933  0.84860170  0.15043914    -0.13500
C2837       C  0.85297686  0.76994965  0.16651836     0.24510
C2838       C  0.88835144  0.77585687  0.15256115    -0.23600
C2839       C  0.89284861  0.78481816  0.11682405     0.19420
C2840       C  0.86319564  0.78927508  0.09573888     0.24450
C2841       C  0.82798749  0.78188327  0.10861916    -0.23540
C2842       C  0.82326263  0.77205964  0.14447566     0.19350
F2843       F  0.79001037  0.76544922  0.15838851    -0.13500
F2844       F  0.84675865  0.76263707  0.20158891    -0.15860
F2845       F  0.86973814  0.79989910  0.06193832    -0.15870
F2846       F  0.92609784  0.78859816  0.10189197    -0.13500
C2847       C  0.59828858  0.74995056  0.07509842     0.24510
C2848       C  0.63284701  0.73533430  0.07904359    -0.23600
C2849       C  0.63691815  0.70353412  0.10075586     0.19420
C2850       C  0.60778104  0.68954755  0.12119597     0.24450
C2851       C  0.57498304  0.70814965  0.12165340    -0.23540
C2852       C  0.56975613  0.73645036  0.09603226     0.19350
F2853       F  0.53759022  0.75388287  0.09417903    -0.13500
F2854       F  0.59250283  0.77925881  0.05315739    -0.15860
F2855       F  0.61183691  0.65879938  0.14128771    -0.15870
F2856       F  0.66916080  0.68635223  0.10262040    -0.13500
C2857       C  0.63998799  0.73430997  0.36935787     0.24510
C2858       C  0.64605999  0.70490413  0.39338191    -0.23600
C2859       C  0.62022246  0.67761251  0.39701953     0.19420
C2860       C  0.58641223  0.68304267  0.38224591     0.24450
C2861       C  0.57877209  0.71519001  0.36253087    -0.23540
C2862       C  0.60655575  0.73951599  0.35432696     0.19350
F2863       F  0.60135902  0.76849438  0.33193375    -0.13500
F2864       F  0.66534891  0.76013304  0.36347490    -0.15860
F2865       F  0.56066600  0.65772538  0.38843561    -0.15870
F2866       F  0.62663839  0.64727053  0.41721329    -0.13500
C2867       C  0.88676293  0.79334834  0.40174728     0.24510
C2868       C  0.86540237  0.76201058  0.40562555    -0.23600
C2869       C  0.85419923  0.74548735  0.37485135     0.19420
C2870       C  0.86534574  0.75848916  0.34134901     0.24450
C2871       C  0.88916689  0.78779494  0.33778586    -0.23540
C2872       C  0.89817428  0.80625266  0.36824832     0.19350
F2873       F  0.92015381  0.83540296  0.36588653    -0.13500
F2874       F  0.89795746  0.81095353  0.43040092    -0.15860
F2875       F  0.85536697  0.74001562  0.31272440    -0.15870
F2876       F  0.83374805  0.71556049  0.37684437    -0.13500
C2877       C  0.83422200  0.92504347  0.49350389     0.24510
C2878       C  0.85874521  0.91299115  0.01982318    -0.23600
C2879       C  0.85674438  0.87684654  0.02748332     0.19420
C2880       C  0.85527523  0.85439711  0.99859819     0.24450
C2881       C  0.83014184  0.86321676  0.47181733    -0.23540
C2882       C  0.81881750  0.89999153  0.47051288     0.19350
F2883       F  0.79161174  0.91108096  0.44964309    -0.13500
F2884       F  0.82352256  0.96012795  0.49217780    -0.15860
F2885       F  0.87219760  0.82209000  0.00039938    -0.15870
F2886       F  0.85672594  0.86476338  0.06170111    -0.13500
C2887       C  0.92967004  0.69238298  0.52895655     0.24510
C2888       C  0.89640056  0.68577312  0.04597150    -0.23600
C2889       C  0.88914434  0.65026189  0.05815438     0.19420
C2890       C  0.90846068  0.62134631  0.04485925     0.24450
C2891       C  0.93916908  0.62723138  0.02310768    -0.23540
C2892       C  0.95189378  0.66305343  0.51926706     0.19350
F2893       F  0.98490716  0.66990233  0.50487896    -0.13500
F2894       F  0.93882043  0.72659812  0.51820050    -0.15860
F2895       F  0.89662601  0.58738631  0.05350967    -0.15870
F2896       F  0.85919029  0.64293415  0.07764830    -0.13500
C2897       C  0.65797569  0.92513342  0.04650345     0.24510
C2898       C  0.66613900  0.89801981  0.01976122    -0.23600
C2899       C  0.63121541  0.89081099  0.50124547     0.19420
C2900       C  0.59752171  0.89495532  0.01741112     0.24450
C2901       C  0.59133648  0.91763878  0.04645920    -0.23540
C2902       C  0.62262143  0.93278132  0.06026709     0.19350
F2903       F  0.61875929  0.95978813  0.08359434    -0.13500
F2904       F  0.68373660  0.94886891  0.05420279    -0.15860
F2905       F  0.56947141  0.88268866  0.49925429    -0.15870
F2906       F  0.63267083  0.87448810  0.46985379    -0.13500
C2907       C  0.64127931  0.60752438  0.02739307     0.24510
C2908       C  0.62966939  0.64108208  0.51215656    -0.23600
C2909       C  0.60000229  0.64145324  0.49019780     0.19420
C2910       C  0.58458823  0.60920431  0.48095890     0.24450
C2911       C  0.59645056  0.57554151  0.49538779    -0.23540
C2912       C  0.62445045  0.57508258  0.01925224     0.19350
F2913       F  0.63456946  0.54347793  0.03575140    -0.13500
F2914       F  0.66892169  0.60600764  0.05013445    -0.15860
F2915       F  0.55759262  0.61138350  0.45770343    -0.15870
F2916       F  0.58683626  0.67292724  0.47575070    -0.13500
C2917       C  0.80958412  0.50567100  0.42443899     0.24510
C2918       C  0.80498942  0.97744337  0.40098604    -0.23600
C2919       C  0.83376537  0.95351804  0.39439193     0.19420
C2920       C  0.86691100  0.95866982  0.40944110     0.24450
C2921       C  0.87225147  0.98804790  0.43149839    -0.23540
C2922       C  0.84312022  0.51129176  0.43917556     0.19350
F2923       F  0.84706686  0.53958535  0.46076374    -0.13500
F2924       F  0.78232351  0.52919902  0.43128593    -0.15860
F2925       F  0.89376788  0.93474270  0.40223082    -0.15870
F2926       F  0.83008598  0.92566688  0.37216386    -0.13500
C2927       C  0.64083697  0.55721988  0.38177797     0.24510
C2928       C  0.64189601  0.58152101  0.35227175    -0.23600
C2929       C  0.60946473  0.59707477  0.34216782     0.19420
C2930       C  0.57722621  0.57932091  0.35120893     0.24450
C2931       C  0.57794684  0.54706315  0.37236365    -0.23540
C2932       C  0.61043063  0.53642110  0.38780227     0.19350
F2933       F  0.61194705  0.00756988  0.41183781    -0.13500
F2934       F  0.67139577  0.54656021  0.39791860    -0.15860
F2935       F  0.54550748  0.59509998  0.34243819    -0.15870
F2936       F  0.60967114  0.63002626  0.32537831    -0.13500
C2937       C  0.55143033  0.56741977  0.16170417     0.24510
C2938       C  0.55601436  0.53554018  0.14255915    -0.23600
C2939       C  0.55298598  0.50215908  0.16229670     0.19420
C2940       C  0.55062256  0.50125585  0.19966129     0.24450
C2941       C  0.55550397  0.53283849  0.21858243    -0.23540
C2942       C  0.54909175  0.56570413  0.19913013     0.19350
F2943       F  0.54437044  0.59685096  0.21642848    -0.13500
F2944       F  0.54960454  0.60027572  0.14453564    -0.15860
F2945       F  0.54911742  0.96892434  0.21742270    -0.15870
F2946       F  0.55302059  0.97011631  0.14578386    -0.13500
C2947       C  0.83082614  0.48237878  0.10335892     0.24510
C2948       C  0.83292460  0.48461072  0.14013773    -0.23600
C2949       C  0.86743290  0.48549252  0.15500983     0.19420
C2950       C  0.89871916  0.48128592  0.13433692     0.24450
C2951       C  0.89668455  0.47974629  0.09761184    -0.23540
C2952       C  0.86228520  0.48136633  0.08230288     0.19350
F2953       F  0.85903746  0.48423855  0.04666035    -0.13500
F2954       F  0.79853057  0.48281854  0.08759612    -0.15860
F2955       F  0.93103403  0.48303588  0.14986194    -0.15870
F2956       F  0.87127626  0.49483255  0.18897523    -0.13500
C2957       C  0.90593816  0.61850737  0.37753442     0.24510
C2958       C  0.93100884  0.61565545  0.40449728    -0.23600
C2959       C  0.93845313  0.64721530  0.42326984     0.19420
C2960       C  0.92705830  0.68114971  0.41109184     0.24450
C2961       C  0.91385931  0.68385216  0.37706908    -0.23540
C2962       C  0.89618723  0.65331730  0.36454759     0.19350
F2963       F  0.87585436  0.65703284  0.33543188    -0.13500
F2964       F  0.89483261  0.58863565  0.36118166    -0.15860
F2965       F  0.94006773  0.71095231  0.42640890    -0.15870
F2966       F  0.46401272  0.64657362  0.44858746    -0.13500
C2967       C  0.01406920  0.91423764  0.35817063     0.24510
C2968       C  0.53169957  0.91012092  0.39081254    -0.23600
C2969       C  0.55145277  0.87715710  0.39527142     0.19420
C2970       C  0.55368269  0.85027306  0.36813823     0.24450
C2971       C  0.53641236  0.85508680  0.33509735    -0.23540
C2972       C  0.01565587  0.88753113  0.33189206     0.19350
F2973       F  0.99459761  0.89310725  0.30339714    -0.13500
F2974       F  0.99311545  0.94397258  0.35202206    -0.15860
F2975       F  0.56948820  0.81786016  0.37579832    -0.15870
F2976       F  0.56581109  0.86935536  0.42726374    -0.13500
C2977       C  0.94312638  0.87005131  0.10861848     0.24510
C2978       C  0.47461638  0.87079127  0.13444095    -0.23600
C2979       C  0.50844627  0.87136893  0.11151728     0.19420
C2980       C  0.51011913  0.86323331  0.07501760     0.24450
C2981       C  0.47975855  0.86146658  0.05341915    -0.23540
C2982       C  0.94719313  0.86055200  0.07213684     0.19350
F2983       F  0.91880271  0.85052437  0.05407230    -0.13500
F2984       F  0.90944723  0.87423784  0.12224602    -0.15860
F2985       F  0.54293680  0.85866583  0.05991460    -0.15870
F2986       F  0.53957714  0.87880992  0.12708409    -0.13500
C2987       C  0.93002647  0.63149450  0.13420992     0.24510
C2988       C  0.95181764  0.66111360  0.12358115    -0.23600
C2989       C  0.47864939  0.65606469  0.09811940     0.19420
C2990       C  0.48859288  0.62159417  0.08864217     0.24450
C2991       C  0.96850144  0.59110262  0.10042273    -0.23540
C2992       C  0.93831121  0.59673813  0.12259175     0.19350
F2993       F  0.91753741  0.56843973  0.13390074    -0.13500
F2994       F  0.90273664  0.63576667  0.15820094    -0.15860
F2995       F  0.52011001  0.62002951  0.07094963    -0.15870
F2996       F  0.49938428  0.68418133  0.08606413    -0.13500
O2997       O  0.54887496  0.54963514  0.92443488    -0.87260
C2998       C  0.97795968  0.55320496  0.59052726     1.12780
O2999       O  0.49101351  0.52086447  0.96004535    -1.35070
O3000       O  0.55767193  0.56520229  0.58326644    -0.88750
O3001       O  0.51979948  0.02037128  0.88304976    -0.89410
O3002       O  0.54421554  0.95070817  0.94250935    -0.78240
O3003       O  0.54118127  0.54944050  0.00059151    -1.00320
C3004       C  0.55787434  0.94102899  0.54254298     1.22820
O3005       O  0.97697466  0.96128954  0.49929882    -1.35220
Mn3006     Mn  0.95744103  0.51382768  0.50421764     1.82060
O3007       O  0.55995084  0.95701464  0.51348049    -0.77310
O3008       O  0.55710849  0.50665738  0.58727658    -0.86710
C3009       C  0.92964666  0.48328136  0.57456603     1.13910
C3010       C  0.55913665  0.53603019  0.60247589     1.08630
O3011       O  0.91021678  0.50888301  0.97598040    -0.78250
O3012       O  0.50629820  0.51909339  0.53285562    -1.31940
O3013       O  0.93416444  0.97717256  0.93626043    -0.97460
C3014       C  0.98384387  0.87577875  0.51402403     1.07340
Mn3015     Mn  0.50679037  0.48698279  0.58394627     1.48570
O3016       O  0.96165090  0.87695912  0.98861528    -0.86660
Mn3017     Mn  0.97401805  0.00029559  0.91188322     1.49560
O3018       O  0.98591416  0.59138699  0.92035115    -0.90540
C3019       C  0.57217321  0.54465629  0.99344164     1.20540
C3020       C  0.95498781  0.58373103  0.91013958     1.12590
Mn3021     Mn  0.52702001  0.98702354  0.98653908     1.80970
O3022       O  0.95845691  0.96629962  0.57932974    -0.95690
Mn3023     Mn  0.51488857  0.56968538  0.96097085     1.49260
C3024       C  0.54665752  0.53769237  0.89390779     1.09110
Mn3025     Mn  0.97832348  0.93111233  0.54653745     1.49930
C3026       C  0.89704791  0.92228800  0.51385192     1.12020
O3027       O  0.99180564  0.94816791  0.92353216    -1.01490
O3028       O  0.48257842  0.52881811  0.61298542    -0.91150
C3029       C  0.52256076  0.93708816  0.92085498     1.23300
O3030       O  0.52908282  0.94288324  0.56109062    -1.01880
O3031       O  0.48596022  0.54514024  0.55908127    -0.89280
O3032       O  0.92105196  0.91937945  0.53781036    -0.88900
O3033       O  0.94555034  0.55110162  0.90436455    -0.88910
Mn3034     Mn  0.52291802  0.57770764  0.53811652     1.47860
O3035       O  0.92574105  0.50395084  0.54782436    -0.77380
C3036       C  0.90747804  0.99274433  0.94786002     1.16350
O3037       O  0.57772477  0.51525229  0.97878774    -0.76110
O3038       O  0.93930655  0.56645812  0.00657136    -0.75730
Mn3039     Mn  0.95255793  0.93123715  0.95829897     1.51060
O3040       O  0.00472876  0.90059287  0.51108302    -0.88080
O3041       O  0.48929990  0.59378521  0.00063237    -0.95610
O3042       O  0.90523263  0.92740021  0.98214971    -0.90620
C3043       C  0.95709832  0.59499898  0.00747612     1.14140
O3044       O  0.53324897  0.69456106  0.82795912    -0.87260
C3045       C  0.95793724  0.68946614  0.64853711     1.12780
O3046       O  0.98499251  0.74172021  0.78572866    -1.35070
O3047       O  0.53489009  0.68237101  0.66889999    -0.88750
O3048       O  0.52684793  0.75096338  0.84920061    -0.89410
O3049       O  0.55031952  0.80245281  0.79196736    -0.78240
O3050       O  0.53131892  0.68138890  0.75114941    -1.00320
C3051       C  0.54523153  0.81490953  0.69690573     1.22820
O3052       O  0.97495425  0.79846588  0.74101786    -1.35220
Mn3053     Mn  0.94717249  0.75335829  0.74677309     1.82060
O3054       O  0.55787003  0.79031031  0.71619675    -0.77310
O3055       O  0.54684778  0.74078705  0.66479532    -0.86710
C3056       C  0.91979402  0.77316085  0.67557338     1.13910
C3057       C  0.55177831  0.70937677  0.65412521     1.08630
O3058       O  0.90616587  0.77290082  0.77929811    -0.78250
O3059       O  0.49158671  0.73672577  0.71529154    -1.31940
O3060       O  0.94173777  0.80562891  0.80732020    -0.97460
C3061       C  0.47570425  0.88668930  0.67800386     1.07340
Mn3062     Mn  0.49693224  0.76245438  0.66458947     1.48570
O3063       O  0.97376210  0.87887413  0.71378390    -0.86660
Mn3064     Mn  0.97898801  0.77544337  0.82915796     1.49560
O3065       O  0.95451708  0.68262352  0.83003423    -0.90540
C3066       C  0.56200005  0.69412570  0.74870252     1.20540
C3067       C  0.93882941  0.70283580  0.85223052     1.12590
Mn3068     Mn  0.52297782  0.76629051  0.75194942     1.80970
O3069       O  0.94962271  0.78620774  0.66712240    -0.95690
Mn3070     Mn  0.49456939  0.68448553  0.79149968     1.49260
C3071       C  0.54370570  0.72060691  0.84611989     1.09110
Mn3072     Mn  0.96884985  0.82482584  0.69591366     1.49930
C3073       C  0.89906474  0.85383175  0.72854045     1.12020
O3074       O  0.99889655  0.81782265  0.80326400    -1.01490
O3075       O  0.47557146  0.71789899  0.63855735    -0.91150
C3076       C  0.52950145  0.82419082  0.80879566     1.23300
O3077       O  0.51646344  0.80914367  0.68218320    -1.01880
O3078       O  0.45327042  0.68102785  0.68048811    -0.89280
O3079       O  0.91519657  0.84172589  0.70195555    -0.88880
O3080       O  0.94664489  0.73608715  0.85626414    -0.88910
Mn3081     Mn  0.49564114  0.67987561  0.71369816     1.47860
O3082       O  0.91363479  0.76192792  0.70660969    -0.77380
C3083       C  0.91225489  0.79157360  0.80559790     1.16350
O3084       O  0.56600265  0.72752110  0.75503911    -0.76110
O3085       O  0.91785544  0.70856726  0.75311021    -0.75730
Mn3086     Mn  0.96357547  0.84141490  0.76886925     1.51060
O3087       O  0.97162500  0.86018173  0.66035877    -0.88080
O3088       O  0.96021972  0.66978413  0.75479721    -0.95610
O3089       O  0.91260144  0.85306650  0.75829345    -0.90620
C3090       C  0.92725708  0.67644915  0.75480506     1.14140
O3091       O  0.78693675  0.55654291  0.84840858    -0.87260
C3092       C  0.80093304  0.48992165  0.66372180     1.12780
O3093       O  0.73794249  0.51467436  0.80364224    -1.35070
O3094       O  0.80968494  0.56261590  0.68744504    -0.88750
O3095       O  0.72798081  0.56365098  0.85971641    -0.89410
O3096       O  0.68731958  0.58547779  0.80524132    -0.78240
O3097       O  0.80406895  0.55287497  0.77159589    -1.00320
C3098       C  0.67984956  0.58984164  0.71437160     1.22820
O3099       O  0.67931608  0.51333839  0.75949163    -1.35220
Mn3100     Mn  0.72343464  0.47872960  0.76504513     1.82050
O3101       O  0.70473562  0.59614863  0.73422876    -0.77310
O3102       O  0.75422281  0.58162564  0.67750835    -0.86710
C3103       C  0.70637282  0.95707375  0.69389066     1.13910
C3104       C  0.78705438  0.58211875  0.66965011     1.08630
O3105       O  0.70421434  0.93493788  0.80037640    -0.78250
O3106       O  0.74748476  0.52258018  0.73199925    -1.31940
O3107       O  0.67657182  0.97011873  0.83412604    -0.97460
C3108       C  0.58940017  0.53136592  0.73879982     1.07340
Mn3109     Mn  0.72788753  0.53366991  0.68063300     1.48570
O3110       O  0.59419564  0.51686048  0.76995035    -0.86660
Mn3111     Mn  0.70478304  0.51326824  0.84943291     1.49560
O3112       O  0.78382172  0.47373334  0.84403265    -0.90540
C3113       C  0.79803403  0.58505066  0.77223818     1.20540
C3114       C  0.77556074  0.47915119  0.87572041     1.12590
Mn3115     Mn  0.72060160  0.55598805  0.76876084     1.80970
O3116       O  0.69939436  0.48923604  0.68632756    -0.95690
Mn3117     Mn  0.79360458  0.51669860  0.81003037     1.49260
C3118       C  0.75989382  0.57559664  0.85805674     1.09110
Mn3119     Mn  0.65813985  0.51436957  0.70719956     1.49930
C3120       C  0.62152441  0.94236958  0.73802590     1.12020
O3121       O  0.66608656  0.53478102  0.82193215    -1.01490
O3122       O  0.77334077  0.50791169  0.65359214    -0.91150
C3123       C  0.66421168  0.56748317  0.82333354     1.23300
O3124       O  0.68214159  0.56086242  0.69724720    -1.01880
O3125       O  0.80396554  0.48115664  0.69569705    -0.89280
O3126       O  0.63130254  0.96532976  0.71396480    -0.88880
O3127       O  0.74392920  0.98959816  0.88400446    -0.88910
Mn3128     Mn  0.80397158  0.52146180  0.73111878     1.47860
O3129       O  0.71144763  0.94680043  0.72520627    -0.77380
C3130       C  0.68837255  0.93943272  0.82987107     1.16350
O3131       O  0.76502068  0.59463435  0.77448625    -0.76110
O3132       O  0.76482507  0.94417397  0.76951856    -0.75730
Mn3133     Mn  0.64129632  0.99461554  0.79855321     1.51060
O3134       O  0.61519458  0.54262836  0.72038003    -0.88080
O3135       O  0.80367937  0.48528713  0.77054928    -0.95610
O3136       O  0.62593451  0.94714938  0.77141479    -0.90620
C3137       C  0.79647422  0.45322270  0.76849802     1.14140
O3138       O  0.83643728  0.71951756  0.94610130    -0.87260
C3139       C  0.65283549  0.67343187  0.01184103     1.12780
O3140       O  0.78640321  0.74831450  0.00382293    -1.35070
O3141       O  0.68543304  0.68537266  0.94074061    -0.88750
O3142       O  0.85105016  0.77349893  0.96465330    -0.89410
O3143       O  0.78998073  0.81814392  0.94320141    -0.78240
O3144       O  0.76275975  0.69868782  0.95452146    -1.00320
C3145       C  0.69116829  0.82152700  0.94373963     1.22820
O3146       O  0.73399427  0.80251838  0.51635155    -1.35220
Mn3147     Mn  0.74111898  0.75131455  0.54049309     1.82050
O3148       O  0.71740873  0.80263623  0.93420036    -0.77310
O3149       O  0.66953292  0.74345675  0.93298653    -0.86710
C3150       C  0.66414861  0.75258353  0.56014701     1.13910
C3151       C  0.66981081  0.71118764  0.92312581     1.08630
O3152       O  0.76977020  0.76474805  0.58677137    -0.78250
O3153       O  0.71584996  0.73836624  0.99272544    -1.31940
O3154       O  0.80229856  0.80027459  0.55573719    -0.97460
C3155       C  0.70817450  0.89416885  0.00189504     1.07340
Mn3156     Mn  0.66294169  0.75659473  0.98435385     1.48570
O3157       O  0.74080218  0.88201785  0.00486860    -0.86660
Mn3158     Mn  0.82768512  0.78198358  0.51384816     1.49560
O3159       O  0.84169733  0.68860983  0.02000427    -0.90540
C3160       C  0.76470024  0.71003587  0.92442961     1.20540
C3161       C  0.86486385  0.70714563  0.53471218     1.12590
Mn3162     Mn  0.75204347  0.77598260  0.96671696     1.80970
O3163       O  0.66043818  0.77130279  0.53280763    -0.95690
Mn3164     Mn  0.80139172  0.69683726  0.98583681     1.49260
C3165       C  0.85085281  0.75034874  0.94103498     1.09110
Mn3166     Mn  0.67978716  0.82017140  0.52387107     1.49930
C3167       C  0.71239332  0.84812154  0.59144674     1.12020
O3168       O  0.79595583  0.81892768  0.99561826    -1.01490
O3169       O  0.64216169  0.70364459  0.99774947    -0.91150
C3170       C  0.80338472  0.83392196  0.96860336     1.23300
O3171       O  0.67325203  0.81090502  0.97129816    -1.01880
O3172       O  0.68499562  0.66834113  0.01990980    -0.89280
O3173       O  0.68668495  0.83045573  0.57833096    -0.88880
O3174       O  0.86308980  0.74154179  0.53602308    -0.88910
Mn3175     Mn  0.72371512  0.68298073  0.98335883     1.47860
O3176       O  0.69499223  0.74912709  0.57250564    -0.77380
C3177       C  0.79788268  0.78326014  0.58337597     1.16350
O3178       O  0.76383887  0.74421350  0.91987426    -0.76110
O3179       O  0.74777009  0.70190618  0.56387631    -0.75730
Mn3180     Mn  0.77004475  0.83841153  0.53349352     1.51060
O3181       O  0.68705770  0.87384996  0.51697463    -0.88080
O3182       O  0.76468320  0.67356776  0.01801791    -0.95610
O3183       O  0.74357627  0.85048962  0.57814174    -0.90620
C3184       C  0.76314079  0.67550583  0.55074707     1.14140
C3185       C  0.79472746  0.66262296  0.60758614     0.24510
C3186       C  0.77963504  0.64918667  0.57655747    -0.23600
C3187       C  0.77556250  0.61176276  0.57439967     0.19420
C3188       C  0.78331021  0.58873080  0.60374806     0.24450
C3189       C  0.79590962  0.60245169  0.63585988    -0.23540
C3190       C  0.80299212  0.63954192  0.63663331     0.19350
F3191       F  0.81494110  0.65401110  0.66664135    -0.13500
F3192       F  0.80093243  0.69856432  0.61009078    -0.15860
F3193       F  0.77430668  0.55347871  0.60188613    -0.15870
F3194       F  0.76020093  0.59787868  0.54565261    -0.13500
C3195       C  0.69704147  0.89244481  0.67844899     0.24510
C3196       C  0.70486019  0.92893956  0.66791145    -0.23600
C3197       C  0.71446599  0.93749877  0.63288490     0.19420
C3198       C  0.71806568  0.91015328  0.60924528     0.24450
C3199       C  0.70632020  0.87471240  0.61830987    -0.23540
C3200       C  0.69594759  0.86573527  0.65314161     0.19350
F3201       F  0.68744904  0.83109891  0.66300105    -0.13500
F3202       F  0.68886500  0.88297790  0.71276816    -0.15860
F3203       F  0.73563312  0.91789054  0.57795442    -0.15870
F3204       F  0.72303459  0.97179796  0.62195619    -0.13500
C3205       C  0.65427412  0.89098457  0.87087918     0.24510
C3206       C  0.68610984  0.90942973  0.85944889    -0.23600
C3207       C  0.71721929  0.89900134  0.87738904     0.19420
C3208       C  0.71649254  0.87450879  0.90696771     0.24450
C3209       C  0.68550062  0.85522979  0.91862909    -0.23540
C3210       C  0.65457695  0.86309867  0.89870663     0.19350
F3211       F  0.62554007  0.84215162  0.90477698    -0.13500
F3212       F  0.62346123  0.89817336  0.85360270    -0.15860
F3213       F  0.74764537  0.86801082  0.92325713    -0.15870
F3214       F  0.74937237  0.91130653  0.86531076    -0.13500
C3215       C  0.79312201  0.61963146  0.89234780     0.24510
C3216       C  0.76598957  0.61308809  0.86879179    -0.23600
C3217       C  0.74442464  0.64249359  0.85665024     0.19420
C3218       C  0.74767062  0.67696938  0.87078594     0.24450
C3219       C  0.77168317  0.68212318  0.89793857    -0.23540
C3220       C  0.79537390  0.65324019  0.90746847     0.19350
F3221       F  0.81829065  0.65587006  0.93450782    -0.13500
F3222       F  0.81530388  0.59245453  0.90359091    -0.15860
F3223       F  0.72503060  0.70407956  0.86048234    -0.15870
F3224       F  0.71973343  0.63796431  0.83165386    -0.13500
C3225       C  0.86473293  0.59614594  0.78115011     0.24510
C3226       C  0.83060671  0.60947721  0.76996869    -0.23600
C3227       C  0.83007723  0.64290116  0.75140801     0.19420
C3228       C  0.86201056  0.66227015  0.74424769     0.24450
C3229       C  0.89604866  0.64997913  0.75671686    -0.23540
C3230       C  0.89677071  0.61613498  0.77487497     0.19350
F3231       F  0.92801980  0.60307227  0.78802047    -0.13500
F3232       F  0.86712517  0.56355883  0.79879392    -0.15860
F3233       F  0.85941099  0.69353103  0.72447006    -0.15870
F3234       F  0.79873530  0.65632121  0.73876514    -0.13500
C3235       C  0.85628139  0.93749392  0.74496025     0.24510
C3236       C  0.82291504  0.92608272  0.75819163    -0.23600
C3237       C  0.81270041  0.88952541  0.75528233     0.19420
C3238       C  0.83596263  0.86502544  0.73944928     0.24450
C3239       C  0.86861327  0.87717494  0.72513413    -0.23540
C3240       C  0.87761122  0.91397273  0.72587944     0.19350
F3241       F  0.91014722  0.92559845  0.71351064    -0.13500
F3242       F  0.86876536  0.97095011  0.75163797    -0.15860
F3243       F  0.82829241  0.82910306  0.74104561    -0.15870
F3244       F  0.78107453  0.87710359  0.76923348    -0.13500
C3245       C  0.62194360  0.67887376  0.71496845     0.24510
C3246       C  0.59334176  0.66933710  0.73891434    -0.23600
C3247       C  0.59391227  0.63402284  0.75317839     0.19420
C3248       C  0.62223294  0.61002807  0.74565531     0.24450
C3249       C  0.64768942  0.61613133  0.71788250    -0.23540
C3250       C  0.64845050  0.65256138  0.70439737     0.19350
F3251       F  0.67555976  0.66315576  0.68191492    -0.13500
F3252       F  0.62390653  0.71323080  0.70111778    -0.15860
F3253       F  0.62648314  0.58195175  0.76852498    -0.15870
F3254       F  0.56731008  0.62282762  0.77603699    -0.13500
C3255       C  0.55216606  0.86904273  0.73258411     0.24510
C3256       C  0.56084232  0.85153719  0.70119625    -0.23600
C3257       C  0.58996010  0.86495393  0.68075558     0.19420
C3258       C  0.60784753  0.89626794  0.69112428     0.24450
C3259       C  0.60217435  0.91001624  0.72555666    -0.23540
C3260       C  0.57341105  0.89619602  0.74574727     0.19350
F3261       F  0.56393509  0.91130008  0.77685335    -0.13500
F3262       F  0.52247388  0.85955582  0.75063246    -0.15860
F3263       F  0.62901279  0.91398669  0.66681127    -0.15870
F3264       F  0.60049674  0.84850680  0.65057420    -0.13500
C3265       C  0.85293719  0.76990185  0.66651381     0.24510
C3266       C  0.88831242  0.77579948  0.65255578    -0.23600
C3267       C  0.89280608  0.78479404  0.61682372     0.19420
C3268       C  0.86315187  0.78927727  0.59574467     0.24450
C3269       C  0.82794407  0.78188436  0.60862225    -0.23540
C3270       C  0.82321986  0.77204340  0.64447522     0.19350
F3271       F  0.78996525  0.76544710  0.65838887    -0.13500
F3272       F  0.84672123  0.76257219  0.70158145    -0.15860
F3273       F  0.86969336  0.79992118  0.56194947    -0.15870
F3274       F  0.92605300  0.78858887  0.60188981    -0.13500
C3275       C  0.59828052  0.74996150  0.57509358     0.24510
C3276       C  0.63283124  0.73532533  0.57902882    -0.23600
C3277       C  0.63690123  0.70352492  0.60073810     0.19420
C3278       C  0.60776811  0.68955546  0.62118763     0.24450
C3279       C  0.57498564  0.70818217  0.62165885    -0.23540
C3280       C  0.56975545  0.73648497  0.59604455     0.19350
F3281       F  0.53760133  0.75394331  0.59421692    -0.13500
F3282       F  0.59249994  0.77927058  0.55315232    -0.15860
F3283       F  0.61181643  0.65880947  0.64128485    -0.15870
F3284       F  0.66913881  0.68633194  0.60259522    -0.13500
C3285       C  0.63992855  0.73429723  0.86939119     0.24510
C3286       C  0.64602671  0.70490373  0.89342001    -0.23600
C3287       C  0.62021837  0.67758125  0.89705837     0.19420
C3288       C  0.58641184  0.68295926  0.88225899     0.24450
C3289       C  0.57873932  0.71509790  0.86254359    -0.23540
C3290       C  0.60649600  0.73946031  0.85435221     0.19350
F3291       F  0.60127418  0.76843273  0.83195934    -0.13500
F3292       F  0.66526623  0.76014239  0.86349829    -0.15860
F3293       F  0.56070104  0.65759935  0.88842231    -0.15870
F3294       F  0.62665688  0.64725753  0.91727181    -0.13500
C3295       C  0.88680064  0.79338381  0.90174507     0.24510
C3296       C  0.86540914  0.76206608  0.90560224    -0.23600
C3297       C  0.85417109  0.74559011  0.87481557     0.19420
C3298       C  0.86532695  0.75860548  0.84132195     0.24450
C3299       C  0.88918603  0.78788037  0.83777812    -0.23540
C3300       C  0.89821711  0.80630491  0.86825329     0.19350
F3301       F  0.92022469  0.83543390  0.86591065    -0.13500
F3302       F  0.89801797  0.81095288  0.93041134    -0.15860
F3303       F  0.85529953  0.74018480  0.81268139    -0.15870
F3304       F  0.83365149  0.71571220  0.87678531    -0.13500
C3305       C  0.83422548  0.92503885  0.99353285     0.24510
C3306       C  0.85874288  0.91299494  0.51979177    -0.23600
C3307       C  0.85671758  0.87685717  0.52747654     0.19420
C3308       C  0.85523123  0.85439302  0.49860330     0.24450
C3309       C  0.83018039  0.86322053  0.97181734    -0.23540
C3310       C  0.81884280  0.89999046  0.97052384     0.19350
F3311       F  0.79164118  0.91107503  0.94964621    -0.13500
F3312       F  0.82352303  0.96012245  0.99220470    -0.15860
F3313       F  0.87215405  0.82208630  0.50040555    -0.15870
F3314       F  0.85677646  0.86479362  0.56169826    -0.13500
C3315       C  0.92972170  0.69243214  0.02885612     0.24510
C3316       C  0.89635621  0.68581393  0.54612219    -0.23600
C3317       C  0.88909505  0.65036013  0.55848086     0.19420
C3318       C  0.90839446  0.62136701  0.54531022     0.24450
C3319       C  0.93909612  0.62715767  0.52352561    -0.23540
C3320       C  0.95195416  0.66315597  0.01901429     0.19350
F3321       F  0.98501567  0.67009802  0.00479188    -0.13500
F3322       F  0.93890542  0.72671476  0.01836368    -0.15860
F3323       F  0.89652389  0.58744091  0.55406043    -0.15870
F3324       F  0.85915643  0.64314456  0.57803022    -0.13500
C3325       C  0.65791504  0.92509029  0.54653155     0.24510
C3326       C  0.66607888  0.89797483  0.51978788    -0.23600
C3327       C  0.63128513  0.89087898  0.00119830     0.19420
C3328       C  0.59745660  0.89489795  0.51746452     0.24450
C3329       C  0.59128039  0.91758381  0.54651540    -0.23540
C3330       C  0.62256818  0.93271569  0.56032230     0.19350
F3331       F  0.61871072  0.95970495  0.58366989    -0.13500
F3332       F  0.68366216  0.94885094  0.55420416    -0.15860
F3333       F  0.56953919  0.88273568  0.99920366    -0.15870
F3334       F  0.63275048  0.87457711  0.96979802    -0.13500
C3335       C  0.64130157  0.60749299  0.52745208     0.24510
C3336       C  0.62965319  0.64113999  0.01215734    -0.23600
C3337       C  0.59994556  0.64156795  0.99025063     0.19420
C3338       C  0.58448234  0.60934882  0.98099834     0.24450
C3339       C  0.59639293  0.57564406  0.99529780    -0.23540
C3340       C  0.62448281  0.57503050  0.51936559     0.19350
F3341       F  0.63459979  0.54345403  0.53591998    -0.13500
F3342       F  0.66894066  0.60602028  0.55019788    -0.15860
F3343       F  0.55737261  0.61160863  0.95787803    -0.15870
F3344       F  0.58677746  0.67307220  0.97586870    -0.13500
C3345       C  0.80982004  0.50551510  0.92430776     0.24510
C3346       C  0.80500929  0.97740433  0.90095954    -0.23600
C3347       C  0.83379348  0.95348952  0.89437467     0.19420
C3348       C  0.86692960  0.95865180  0.90943584     0.24450
C3349       C  0.87225212  0.98803126  0.93149577    -0.23540
C3350       C  0.84337375  0.51096707  0.93905270     0.19350
F3351       F  0.84740973  0.53920231  0.96069424    -0.13500
F3352       F  0.78265358  0.52913961  0.93119690    -0.15860
F3353       F  0.89379567  0.93473262  0.90223433    -0.15870
F3354       F  0.83013022  0.92563568  0.87214726    -0.13500
C3355       C  0.64098025  0.55714672  0.88188524     0.24510
C3356       C  0.64195994  0.58145927  0.85236937    -0.23600
C3357       C  0.60947327  0.59684508  0.84224614     0.19420
C3358       C  0.57732970  0.57890093  0.85119852     0.24450
C3359       C  0.57814554  0.54669373  0.87242172    -0.23540
C3360       C  0.61063880  0.53622984  0.88793931     0.19350
F3361       F  0.61193921  0.00756280  0.91189280    -0.13500
F3362       F  0.67156600  0.54666684  0.89807821    -0.15860
F3363       F  0.54555535  0.59450434  0.84234166    -0.15870
F3364       F  0.60952478  0.62979835  0.82546723    -0.13500
C3365       C  0.55150039  0.56732353  0.66169619     0.24510
C3366       C  0.55605514  0.53545469  0.64254904    -0.23600
C3367       C  0.55308587  0.50206010  0.66227922     0.19420
C3368       C  0.55075680  0.50115035  0.69964581     0.24450
C3369       C  0.55560915  0.53274329  0.71856476    -0.23540
C3370       C  0.54918819  0.56560689  0.69911432     0.19350
F3371       F  0.54453000  0.59676536  0.71639808    -0.13500
F3372       F  0.54969619  0.60018028  0.64452689    -0.15860
F3373       F  0.54915030  0.96889399  0.71741078    -0.15870
F3374       F  0.55304782  0.97011526  0.64577329    -0.13500
C3375       C  0.83120499  0.48210058  0.60357377     0.24510
C3376       C  0.83325276  0.48427877  0.64034803    -0.23600
C3377       C  0.86777716  0.48487263  0.65525935     0.19420
C3378       C  0.89908259  0.48044646  0.63460855     0.24450
C3379       C  0.89707924  0.47914942  0.59785227    -0.23540
C3380       C  0.86267956  0.48104410  0.58255527     0.19350
F3381       F  0.85945055  0.48431481  0.54694095    -0.13500
F3382       F  0.79894004  0.48274504  0.58775627    -0.15860
F3383       F  0.93139955  0.48181933  0.65019241    -0.15870
F3384       F  0.87165375  0.49422408  0.68921503    -0.13500
C3385       C  0.90593608  0.61873282  0.87806603     0.24510
C3386       C  0.93127977  0.61580087  0.90478953    -0.23600
C3387       C  0.93917297  0.64738183  0.92334100     0.19420
C3388       C  0.92759686  0.68132577  0.91133040     0.24450
C3389       C  0.91410103  0.68405954  0.87742395    -0.23540
C3390       C  0.89627920  0.65355570  0.86503355     0.19350
F3391       F  0.87589790  0.65726098  0.83594179    -0.13500
F3392       F  0.89453365  0.58888943  0.86186150    -0.15860
F3393       F  0.94070919  0.71113764  0.92655052    -0.15870
F3394       F  0.46330872  0.64640007  0.94882773    -0.13500
C3395       C  0.01405374  0.91426050  0.85813689     0.24510
C3396       C  0.53165958  0.91009529  0.89085825    -0.23600
C3397       C  0.55142454  0.87713808  0.89533202     0.19420
C3398       C  0.55365438  0.85023426  0.86821678     0.24450
C3399       C  0.53637943  0.85502297  0.83517584    -0.23540
C3400       C  0.01566670  0.88757867  0.83183369     0.19350
F3401       F  0.99462292  0.89316926  0.80332960    -0.13500
F3402       F  0.99308215  0.94398621  0.85200808    -0.15860
F3403       F  0.56946921  0.81782922  0.87589431    -0.15870
F3404       F  0.56580092  0.86936214  0.92732052    -0.13500
C3405       C  0.94313947  0.87002680  0.60851161     0.24510
C3406       C  0.47469995  0.87075048  0.63444704    -0.23600
C3407       C  0.50853878  0.87119701  0.61152376     0.19420
C3408       C  0.51018675  0.86308352  0.57501208     0.24450
C3409       C  0.47981769  0.86139989  0.55341360    -0.23540
C3410       C  0.94721015  0.86051397  0.57203565     0.19350
F3411       F  0.91882172  0.85049397  0.55396252    -0.13500
F3412       F  0.90946126  0.87424300  0.62213220    -0.15860
F3413       F  0.54299086  0.85842443  0.55990574    -0.15870
F3414       F  0.53970022  0.87849037  0.62709978    -0.13500
C3415       C  0.93020079  0.63101827  0.63455429     0.24510
C3416       C  0.95185237  0.66072521  0.62382623    -0.23600
C3417       C  0.47867719  0.65630192  0.59800207     0.19420
C3418       C  0.48855657  0.62181979  0.58850793     0.24450
C3419       C  0.96870812  0.59071699  0.60067604    -0.23540
C3420       C  0.93855916  0.59627172  0.62292473     0.19350
F3421       F  0.91789439  0.56790811  0.63429037    -0.13500
F3422       F  0.90294876  0.63520746  0.65860346    -0.15860
F3423       F  0.52008128  0.62016650  0.57082954    -0.15870
F3424       F  0.49950294  0.68437797  0.58601799    -0.13500
loop_ 
_geom_bond_atom_site_label_1 
_geom_bond_atom_site_label_2 
_geom_bond_distance 
_geom_bond_site_symmetry_2 
_ccdc_geom_bond_type 
O1           C28   1.253       .  A
O1          Mn27   2.007       .  S
C2         O1747   1.262       .  A
C2         O1744   1.245       .  A
C2          C423   1.484       .  S
O3          Mn27   2.020   1_655  S
O3        Mn2150   2.071       .  S
O3        Mn2589   2.109       .  S
O3         Mn881   2.082   1_645  S
O4           C14   1.278       .  A
O4          Mn38   2.200       .  S
O5          C884   1.277       .  A
O5        Mn1733   2.130   1_455  S
O6           C33   1.282       .  A
O6          Mn25   2.248       .  S
O7          Mn27   1.933       .  S
O7         Mn466   1.899       .  S
O7           C23   1.195       .  S
C8           O11   1.230       .  A
C8          C333   1.517       .  S
C8           O34   1.271       .  S
O9          Mn29   2.071   1_556  S
O9         Mn866   2.080   1_556  S
O9         Mn471   2.162       .  S
O9        Mn2165   2.142       .  S
Mn10         O39   2.028       .  S
Mn10        O443   2.094   1_554  S
Mn10        O470   2.055       .  S
Mn10       O2143   2.071   1_554  S
Mn10        O865   2.079   1_544  S
Mn10       O1728   2.161       .  S
O11        Mn453   1.933   1_554  S
O12          C14   1.248       .  A
O12         Mn19   2.030   1_545  S
C13          O39   1.254   1_565  A
C13         C383   1.489       .  S
C13         O882   1.254       .  S
C14         C370   1.514       .  S
O15         C896   1.255   1_545  A
O15        Mn438   2.094       .  S
O16         Mn19   2.229   1_545  S
O16         Mn38   2.272       .  S
O16       Mn1722   2.161   1_455  S
O16       Mn1309   2.260   1_544  S
O17         Mn21   1.925       .  S
O17         Mn43   1.989       .  S
O17          C40   1.225       .  S
C18          O44   1.208       .  A
C18         O448   1.283   1_554  A
C18        C2125   1.562       .  S
Mn19         O32   2.109   1_465  S
Mn19        O890   2.017       .  S
Mn19       O2594   1.989   1_455  S
O20         C446   1.284       .  A
O20         Mn43   2.303       .  S
Mn21       O1717   2.132       .  S
Mn21        O893   2.158       .  S
Mn21       O2571   2.108       .  S
Mn21         O31   2.065       .  S
O22          C24   1.264       .  A
O22       Mn1739   2.034       .  S
C23          O41   1.248       .  A
C23         C343   1.469       .  S
C24          O37   1.285       .  A
C24         C390   1.482       .  S
Mn25        O439   1.930       .  S
Mn25        O897   2.178       .  S
Mn25        O859   2.082   1_455  S
Mn25       O2149   2.142   1_455  S
Mn25       O1300   2.260       .  S
O26         Mn29   1.953       .  S
O26       Mn2587   1.989       .  S
O26         C869   1.254       .  S
Mn27       O1734   2.033   1_455  S
Mn27         O45   1.988   1_455  S
C28         O861   1.277       .  A
C28         C363   1.446       .  S
Mn29         O36   2.220       .  S
Mn29         O44   2.010       .  S
Mn29       O1746   2.040       .  S
C30          O36   1.290       .  A
C30         O474   1.238   1_554  A
C30         C310   1.484       .  S
O31         Mn43   2.031       .  S
O31        C1745   1.219       .  S
O32        C1714   1.245       .  A
C33         C400   1.563       .  S
C33        O1743   1.220   1_455  S
O34        Mn875   2.016       .  S
O34       Mn1741   2.035   1_455  S
O35        C1714   1.262       .  A
O35         Mn38   1.972   1_655  S
O37        Mn877   2.158       .  S
Mn38        O435   1.899       .  S
Mn38        O473   1.988   1_455  S
C40         O871   1.254       .  A
C40         C353   1.481       .  S
O41        Mn881   2.178   1_545  S
O42          C47   1.252       .  A
O42        Mn438   2.054       .  S
Mn43         O46   1.968       .  S
Mn43        O437   2.164       .  S
O45        Mn466   1.988   1_655  S
O45        C1759   1.230       .  S
O46         C458   1.239       .  A
C47         C751   1.491       .  S
C47        O1757   1.230       .  S
O48          C75   1.270       .  A
O48         Mn74   2.064   1_455  S
C49        O1794   1.251       .  A
C49        O1791   1.275       .  A
C49         C420   1.459       .  S
O50         Mn57   2.095       .  S
O50         Mn68   2.099       .  S
O50       Mn1784   2.078       .  S
O50       Mn1786   2.142       .  S
O51          C61   1.288       .  A
O51         Mn85   2.211   1_455  S
O52          C75   1.287       .  A
O52       Mn1780   2.138   1_455  S
O53          C80   1.285       .  A
O53         Mn72   2.312       .  S
O54         Mn85   1.969   1_455  S
O54         Mn74   2.031   1_455  S
O54          C70   1.243       .  S
C55          O58   1.240       .  A
C55         C260   1.493       .  S
C55          O81   1.246       .  S
O56         Mn76   1.949       .  S
O56         Mn57   1.973       .  S
O56         Mn90   1.968       .  S
O56       Mn1784   2.181       .  S
Mn57         O86   2.005       .  S
Mn57         O62   2.078       .  S
Mn57         O89   1.996       .  S
Mn57       O1775   2.114       .  S
O58         Mn72   2.038       .  S
O59          C61   1.250       .  A
O59         Mn66   2.021   1_455  S
C60          O86   1.246       .  A
C60         C270   1.480       .  S
C60          O73   1.248       .  S
C61         C283   1.485       .  S
O62          C87   1.254       .  A
O63         Mn66   2.112       .  S
O63         Mn85   2.104       .  S
O63         Mn72   2.165   1_655  S
O63       Mn1769   2.115       .  S
O64         Mn68   1.954       .  S
O64         Mn90   2.087       .  S
O64          C87   1.226       .  S
C65        O1803   1.211       .  A
C65        O1779   1.377       .  A
C65         C410   1.768       .  S
Mn66         O79   2.118       .  S
Mn66         O81   2.018   1_655  S
Mn66       O1785   1.968       .  S
O67        C1777   1.376       .  A
O67         Mn90   2.482       .  S
Mn68         O84   2.119       .  S
Mn68       O1764   2.137       .  S
Mn68         O78   1.960       .  S
O69          C71   1.269       .  A
O69       Mn1786   2.057       .  S
C70          O88   1.274       .  A
C70         C250   1.524       .  S
C71          O84   1.279       .  A
C71         C393   1.470       .  S
Mn72         O88   2.142       .  S
Mn72       O1762   2.077   1_455  S
Mn72       O1768   2.181   1_455  S
O73         Mn76   1.973       .  S
O73       Mn1778   1.968       .  S
Mn74       O1781   2.057       .  S
Mn74       O1762   2.142       .  S
Mn74       O1804   2.005       .  S
C75         C293   1.471       .  S
Mn76         O83   2.103       .  S
Mn76         O91   1.841       .  S
Mn76       O1793   1.931       .  S
C77          O83   1.251       .  A
C77          O93   1.242       .  A
C77         C243   1.426       .  S
O78         Mn90   2.042       .  S
O78        C1792   1.195       .  S
O79        C1761   1.275       .  A
C80         C403   1.565       .  S
C80        O1790   1.195   1_455  S
O81       Mn1788   1.931   1_455  S
O82        C1761   1.251       .  A
O82         Mn85   2.041       .  S
Mn85       O1804   2.037       .  S
C87         C303   1.476       .  S
O89          C94   1.233       .  A
Mn90         O93   1.994       .  S
O91        C1777   1.211       .  A
O92       Mn1786   2.005       .  S
O92       Mn1797   2.037       .  S
O92          C94   1.253       .  S
C94         C233   1.527       .  S
O95         C122   1.278       .  A
O95        Mn121   2.107       .  S
C96         O129   1.246       .  A
C96         O126   1.279   1_565  A
C96         C380   1.495       .  S
O97        Mn104   2.089   1_545  S
O97        Mn115   2.101       .  S
O97        Mn119   2.088       .  S
O97        Mn121   2.101       .  S
O98         C108   1.291       .  A
O98        Mn132   2.211       .  S
O99         C122   1.274       .  A
O99        Mn115   2.111       .  S
O100        C127   1.266       .  A
O100       Mn119   2.149       .  S
O101       Mn132   1.949       .  S
O101       Mn121   1.972       .  S
O101        C117   1.207       .  S
C102        O105   1.237       .  A
C102        C253   1.542       .  S
C102        O128   1.269       .  S
O103       Mn123   2.144       .  S
O103       Mn104   2.085   1_545  S
O103       Mn119   2.256       .  S
O103       Mn993   2.125   1_545  S
Mn104       O989   1.999       .  S
Mn104       O965   2.176       .  S
Mn104       O992   2.000       .  S
Mn104       O110   2.194   1_565  S
O105       Mn119   2.033       .  S
O106        C108   1.254       .  A
O106       Mn113   2.031       .  S
C107        O133   1.247       .  A
C107        C200   1.455       .  S
C107        O976   1.241       .  S
C108        C193   1.489       .  S
O109        C134   1.263       .  A
O109       Mn960   2.176       .  S
O110       Mn113   2.114       .  S
O110       Mn132   2.109       .  S
O110       Mn119   2.116       .  S
O111       Mn137   2.081       .  S
O111       Mn971   2.019       .  S
O111        C134   1.225       .  S
C112        O138   1.241       .  A
C112        O114   1.291       .  A
C112        C373   1.491       .  S
Mn113       O126   2.186       .  S
Mn113       O128   2.068       .  S
Mn113       O120   1.966   1_545  S
O114       Mn993   2.225   1_545  S
Mn115       O987   2.143   1_545  S
Mn115       O125   1.946       .  S
Mn115       O967   2.019   1_545  S
O116        C118   1.251       .  A
O116       Mn121   2.036   1_565  S
C117        O135   1.281       .  A
C117        C230   1.520       .  S
C118        O987   1.274       .  A
C118       C1206   1.472       .  S
Mn119       O135   2.217       .  S
O120       Mn123   1.953   1_565  S
O120        C963   1.241       .  S
Mn121       O139   1.946   1_545  S
C122        C220   1.476       .  S
Mn123       O138   1.968       .  S
Mn123       O986   2.084   1_545  S
Mn123       O128   1.963       .  S
C124        O130   1.270       .  A
C124        O140   1.293       .  A
C124        C263   1.497       .  S
O125       Mn993   1.992   1_545  S
O125        C127   1.211       .  S
C127        C360   1.464       .  S
O129       Mn132   2.034   1_565  S
O130       Mn979   2.085       .  S
O131        C974   1.274       .  A
O131       Mn971   2.143       .  S
Mn132       O139   1.965   1_545  S
O133       Mn960   1.998       .  S
C134        C210   1.546       .  S
O136        C997   1.230       .  A
O136       Mn960   2.001       .  S
Mn137       O140   2.148       .  S
Mn137       O970   2.225       .  S
Mn137       O959   2.126       .  S
Mn137       O981   1.992       .  S
O139        C141   1.221       .  S
C141        O992   1.230       .  A
C141       C1096   1.453       .  S
O142        C169   1.270       .  A
O142       Mn168   2.122       .  S
C143        O176   1.257       .  A
C143        O173   1.283       .  A
C143        C340   1.479       .  S
O144       Mn166   2.148       .  S
O144       Mn168   2.105       .  S
O144       Mn579   2.162       .  S
O144       Mn590   2.041       .  S
O145        C155   1.286       .  A
O145       Mn179   2.177       .  S
O146        C169   1.256       .  A
O146       Mn590   2.064       .  S
O147        C174   1.255       .  A
O147       Mn166   2.258       .  S
O148       Mn179   1.882       .  S
O148       Mn168   1.887       .  S
O148        C164   1.198       .  S
C149        O152   1.250       .  A
C149        C213   1.554       .  S
C149        O175   1.275       .  S
O150       Mn170   2.136       .  S
O150       Mn151   2.086       .  S
O150       Mn184   2.028       .  S
O150       Mn594   2.231   1_554  S
Mn151       O180   2.081       .  S
Mn151       O156   2.146       .  S
Mn151       O183   2.014       .  S
Mn151       O572   2.162       .  S
Mn151       O585   2.127   1_554  S
O152       Mn166   2.030       .  S
O153        C155   1.260       .  A
O153       Mn160   2.024       .  S
C154        O180   1.257       .  A
C154        C280   1.491       .  S
C154        O167   1.232       .  S
C155        C290   1.473       .  S
O156        C181   1.260       .  A
O157       Mn160   2.109       .  S
O157       Mn179   2.103       .  S
O157       Mn166   2.143       .  S
O157       Mn579   2.127       .  S
O158       Mn162   1.961       .  S
O158       Mn184   2.019       .  S
O158        C181   1.208       .  S
C159        O161   1.300       .  A
C159        O613   1.210       .  A
C159        C758   1.701       .  S
Mn160       O173   2.148       .  S
Mn160       O175   2.085       .  S
Mn160       O595   1.926       .  S
O161       Mn612   2.204       .  S
Mn162       O178   2.147       .  S
Mn162       O574   2.064   1_554  S
Mn162       O572   2.041       .  S
Mn162       O600   1.919   1_554  S
O163        C593   1.259       .  A
O163       Mn168   2.021       .  S
C164        O182   1.267       .  A
C164        C223   1.477       .  S
C165        O178   1.273       .  A
C165        O591   1.259       .  A
C165        C320   1.474       .  S
Mn166       O182   2.187       .  S
Mn166       O578   2.231       .  S
O167       Mn170   1.963       .  S
O167       Mn588   1.926   1_554  S
Mn168       O186   1.991       .  S
C169        C300   1.484       .  S
Mn170       O177   2.126       .  S
Mn170       O185   2.009       .  S
Mn170       O603   2.047   1_554  S
C171        O177   1.284       .  A
C171        O187   1.259       .  A
C171        C203   1.448       .  S
O172       Mn590   1.918       .  S
O172       Mn612   1.868       .  S
O172        C174   1.172       .  S
C174        C313   1.490       .  S
O175       Mn598   2.047       .  S
O176       Mn179   2.038       .  S
Mn179       O186   2.057       .  S
C181        C273   1.490       .  S
O183        C188   1.238       .  A
Mn184       O187   1.995       .  S
Mn184       O589   2.204       .  S
Mn184       O600   1.867   1_554  S
O185        C587   1.208       .  A
O186        C616   1.239       .  S
C188        C190   1.491       .  S
C188        O614   1.239       .  S
C189        C190   1.419       .  A
C189        C194   1.404       .  A
C189        F196   1.356       .  S
C190        C191   1.396       .  A
C191        C192   1.407       .  A
C191        F198   1.358       .  S
C192        C193   1.422       .  A
C192        F197   1.351       .  S
C193        C194   1.398       .  A
C194        F195   1.356       .  S
C199        C200   1.422       .  A
C199        C204   1.398       .  A
C199        F206   1.358       .  S
C200        C201   1.388       .  A
C201        C202   1.374       .  A
C201        F208   1.357       .  S
C202        C203   1.412       .  A
C202        F207   1.360       .  S
C203        C204   1.391       .  A
C204        F205   1.357       .  S
C209        C210   1.426       .  A
C209        C214   1.445       .  A
C209        F216   1.356       .  S
C210        C211   1.403       .  A
C211        C212   1.412       .  A
C211        F218   1.351       .  S
C212        C213   1.417       .  A
C212        F217   1.344       .  S
C213        C214   1.416       .  A
C214        F215   1.348       .  S
C219        C220   1.392       .  A
C219        C224   1.387       .  A
C219        F226   1.358       .  S
C220        C221   1.415       .  A
C221        C222   1.404       .  A
C221        F228   1.351       .  S
C222        C223   1.397       .  A
C222        F227   1.356       .  S
C223        C224   1.421       .  A
C224        F225   1.354       .  S
C229        C230   1.430       .  A
C229        C234   1.422       .  A
C229        F236   1.358       .  S
C230        C231   1.398       .  A
C231        C232   1.412       .  A
C231        F238   1.357       .  S
C232        C233   1.430       .  A
C232        F237   1.356       .  S
C233        C234   1.404       .  A
C234        F235   1.357       .  S
C239        C240   1.395       .  A
C239        C244   1.382       .  A
C239        F246   1.358       .  S
C240        C997   1.453       .  S
C240        C241   1.414       .  A
C241        C242   1.388       .  A
C241        F248   1.359       .  S
C242        C243   1.393       .  A
C242        F247   1.358       .  S
C243        C244   1.403       .  A
C244        F245   1.359       .  S
C249        C250   1.421       .  A
C249        C254   1.439       .  A
C249        F256   1.357       .  S
C250        C251   1.393       .  A
C251        C252   1.403       .  A
C251        F258   1.358       .  S
C252        C253   1.411       .  A
C252        F257   1.336       .  S
C253        C254   1.421       .  A
C254        F255   1.357       .  S
C259        C260   1.399       .  A
C259        C264   1.396       .  A
C259        F266   1.330       .  S
C260        C261   1.402       .  A
C261        C262   1.412       .  A
C261        F268   1.357       .  S
C262        C263   1.421       .  A
C262        F267   1.351       .  S
C263        C264   1.392       .  A
C264        F265   1.355       .  S
C269        C270   1.426       .  A
C269        C274   1.403       .  A
C269        F276   1.357       .  S
C270        C271   1.385       .  A
C271        C272   1.385       .  A
C271        F278   1.357       .  S
C272        C273   1.416       .  A
C272        F277   1.339       .  S
C273        C274   1.397       .  A
C274        F275   1.357       .  S
C279        C280   1.403       .  A
C279        C284   1.396       .  A
C279        F286   1.358       .  S
C280        C281   1.417       .  A
C281        C282   1.410       .  A
C281        F288   1.357       .  S
C282        C283   1.398       .  A
C282        F287   1.352       .  S
C283        C284   1.414       .  A
C284        F285   1.359       .  S
C289        C290   1.410       .  A
C289        C294   1.393       .  A
C289        F296   1.359       .  S
C290        C291   1.402       .  A
C291        C292   1.403       .  A
C291        F298   1.355       .  S
C292        C293   1.409       .  A
C292        F297   1.358       .  S
C293        C294   1.401       .  A
C294        F295   1.355       .  S
C299        C300   1.413       .  A
C299        C304   1.394       .  A
C299        F306   1.357       .  S
C300        C301   1.405       .  A
C301        C302   1.393       .  A
C301        F308   1.348       .  S
C302        C303   1.408       .  A
C302        F307   1.359       .  S
C303        C304   1.406       .  A
C304        F305   1.358       .  S
C309        C314   1.424       .  A
C309        C738   1.423       .  A
C309        F316   1.350       .  S
C310        C311   1.357       .  A
C310        C737   1.423   1_554  A
C311        C312   1.395   1_554  A
C311        F318   1.352       .  S
C312        C741   1.423       .  A
C312        F317   1.344   1_556  S
C313        C314   1.416       .  A
C313        C740   1.423       .  A
C314        F315   1.352       .  S
C319        C324   1.410       .  A
C319        C748   1.408       .  A
C319        F326   1.357       .  S
C320        C321   1.401       .  A
C320        C747   1.408       .  A
C321        C322   1.384       .  A
C321        F328   1.348       .  S
C322        C323   1.408       .  A
C322        F327   1.359       .  S
C323        C475   1.492       .  S
C323        C752   1.415       .  A
C324        C751   1.415       .  A
C324        F325   1.357       .  S
C329        C330   1.473       .  A
C329        C334   1.435       .  A
C329        F336   1.350       .  S
C330        C587   1.704       .  S
C330        C759   1.525       .  A
C331        C758   1.523       .  A
C331        C760   1.397       .  A
C331        F338   1.347       .  S
C332        C333   1.416       .  A
C332        C759   1.397       .  A
C332        F765   1.354   1_554  S
C333        C334   1.416       .  A
C334        F335   1.357       .  S
F337        C760   1.354       .  S
C339        C344   1.404       .  A
C339        C768   1.418       .  A
C339        F346   1.358       .  S
C340        C341   1.399       .  A
C340        C767   1.418       .  A
C341        C342   1.386       .  A
C341        F348   1.359       .  S
C342        C343   1.411       .  A
C342        F347   1.353       .  S
C343        C772   1.400       .  A
C344        C771   1.400   1_554  A
C344        F345   1.358       .  S
C349        C354   1.403       .  A
C349       C1206   1.404   1_545  A
C349        F356   1.357       .  S
C350        C974   1.471       .  S
C350        C351   1.407       .  A
C350       C1205   1.404       .  A
C351        C352   1.392       .  A
C351        F358   1.359       .  S
C352        C353   1.408       .  A
C352        F357   1.358       .  S
C353       C1210   1.411       .  A
C354       C1209   1.411   1_545  A
C354        F355   1.358       .  S
C359        C360   1.406       .  A
C359        C364   1.387       .  A
C359        F366   1.355       .  S
C360        C361   1.390       .  A
C361        C362   1.405       .  A
C361        F368   1.351       .  S
C362        C363   1.411       .  A
C362        F367   1.358       .  S
C363        C364   1.405       .  A
C364       F1221   1.359       .  S
F365       C1220   1.359       .  S
C369        C370   1.409       .  A
C369        C374   1.413       .  A
C369        F376   1.357       .  S
C370        C371   1.421       .  A
C371        C372   1.410       .  A
C371       F1234   1.358   1_545  S
C372        C373   1.403       .  A
C372       F1233   1.353   1_545  S
C373        C374   1.417       .  A
C374        F375   1.349       .  S
F377       C1228   1.353       .  S
F378       C1227   1.358       .  S
C379        C380   1.397       .  A
C379        C384   1.403       .  A
C379        F386   1.357       .  S
C380        C381   1.420       .  A
C381        C382   1.401       .  A
C381        F388   1.350       .  S
C382        C383   1.394       .  A
C382        F387   1.357       .  S
C383        C384   1.421       .  A
C384        F385   1.354       .  S
C389        C390   1.400       .  A
C389        C394   1.407       .  A
C389        F396   1.355       .  S
C390        C391   1.417       .  A
C391        C392   1.386       .  A
C391       F2110   1.345       .  S
C392        C393   1.387       .  A
C392        F397   1.359       .  S
C393        C394   1.412       .  A
C394        F395   1.353       .  S
F398       C2103   1.345       .  S
C399        C404   1.423       .  A
C399       C2112   1.416       .  A
C399        F406   1.358       .  S
C400        C401   1.424       .  A
C400       C2111   1.416       .  A
C401        C402   1.451       .  A
C401        F408   1.354       .  S
C402        C403   1.423       .  A
C402        F407   1.354       .  S
C403       C2116   1.425       .  A
C404       C2115   1.426       .  A
C404        F405   1.357       .  S
C409        C414   1.437       .  A
C409       C2122   1.549       .  A
C409        F416   1.356       .  S
C410        C411   1.516   1_655  A
C410       C2121   1.548       .  A
C411        C412   1.423       .  A
C411        F418   1.350       .  S
C412        C413   1.417   1_455  A
C412        F417   1.351       .  S
C413       C1730   1.562       .  S
C413       C2126   1.392       .  A
C414       C2125   1.394       .  A
C414        F415   1.336       .  S
C419        C420   1.411       .  A
C419        C424   1.399       .  A
C419        F426   1.358       .  S
C420       C2133   1.390       .  A
C421        C422   1.378       .  A
C421       C2132   1.390       .  A
C421        F428   1.360       .  S
C422       C2135   1.418       .  A
C422        F427   1.341   1_655  S
C423        C424   1.406       .  A
C423       C2134   1.418       .  A
C424        F425   1.358       .  S
O429        C456   1.253       .  A
O429       Mn455   2.007       .  S
C430       O2175   1.262       .  A
C430       O2172   1.245       .  A
C430        C851   1.484       .  S
O431      Mn1722   2.071   1_556  S
O431      Mn3017   2.108       .  S
O431      Mn1309   2.082   1_645  S
O431       Mn455   2.020   1_655  S
O432        C442   1.278       .  A
O432       Mn466   2.201       .  S
O433       C1312   1.277       .  A
O433      Mn2161   2.131   1_455  S
O434        C461   1.282       .  A
O434       Mn453   2.250       .  S
O435       Mn455   1.934   1_554  S
O435        C451   1.195   1_554  S
C436        O439   1.229       .  A
C436        C761   1.519       .  S
C436        O462   1.271       .  S
O437       Mn457   2.071       .  S
O437      Mn1294   2.081       .  S
O437      Mn1737   2.142       .  S
Mn438       O467   2.029       .  S
Mn438      O1715   2.071       .  S
Mn438      O1293   2.079   1_545  S
Mn438      O2156   2.161       .  S
O440        C442   1.248       .  A
O440       Mn447   2.030   1_545  S
C441        O467   1.254   1_565  A
C441        C811   1.489       .  S
C441       O1310   1.254       .  S
C442        C798   1.514       .  S
O443       C1324   1.255   1_545  A
O444      Mn2150   2.160   1_455  S
O444       Mn447   2.229   1_545  S
O444       Mn466   2.272       .  S
O444       Mn881   2.260   1_545  S
O445       Mn449   1.923       .  S
O445       Mn471   1.987       .  S
O445        C468   1.225       .  S
C446        O472   1.206       .  A
C446       C2553   1.562       .  S
Mn447       O460   2.109   1_465  S
Mn447      O1318   2.017       .  S
Mn447      O3022   1.989   1_455  S
O448       Mn471   2.299       .  S
Mn449      O2145   2.131       .  S
Mn449      O1321   2.157       .  S
Mn449      O2999   2.109       .  S
Mn449       O459   2.065       .  S
O450        C452   1.264       .  A
O450      Mn2167   2.033       .  S
C451        O469   1.248       .  A
C451        C771   1.469       .  S
C452        O465   1.285       .  A
C452        C818   1.481       .  S
Mn453      O1325   2.178       .  S
Mn453      O1287   2.084   1_455  S
Mn453      O1721   2.142   1_455  S
Mn453       O872   2.260   1_556  S
O454      Mn3015   1.989       .  S
O454       Mn457   1.952       .  S
O454       C1297   1.254       .  S
Mn455      O2162   2.034   1_455  S
Mn455       O473   1.987   1_456  S
C456       O1289   1.277       .  A
C456        C791   1.446       .  S
Mn457       O464   2.216       .  S
Mn457       O472   2.004       .  S
Mn457      O2174   2.035       .  S
C458        O464   1.289       .  A
C458        C738   1.484       .  S
O459       Mn471   2.031       .  S
O459       C2173   1.220       .  S
O460       C2142   1.245       .  A
C461        C828   1.562       .  S
C461       O2171   1.219   1_455  S
O462      Mn1303   2.017       .  S
O462      Mn2169   2.041   1_455  S
O463       C2142   1.262       .  A
O463       Mn466   1.971   1_655  S
O465      Mn1305   2.157       .  S
C468       O1299   1.255       .  A
C468        C781   1.481       .  S
O469      Mn1309   2.177   1_545  S
O470        C475   1.252       .  A
Mn471       O474   1.968       .  S
O473       C2187   1.230       .  S
C475       O2185   1.230       .  S
O476        C503   1.270       .  A
O476       Mn502   2.064   1_455  S
C477       O2222   1.251       .  A
C477       O2219   1.275       .  A
C477        C848   1.459       .  S
O478       Mn485   2.095       .  S
O478       Mn496   2.098       .  S
O478      Mn2212   2.077       .  S
O478      Mn2214   2.142       .  S
O479        C489   1.288       .  A
O479       Mn513   2.211   1_455  S
O480        C503   1.287       .  A
O480      Mn2208   2.137   1_455  S
O481        C508   1.285       .  A
O481       Mn500   2.312       .  S
O482       Mn513   1.968   1_455  S
O482       Mn502   2.030   1_455  S
O482        C498   1.243       .  S
C483        O486   1.241       .  A
C483        C688   1.493       .  S
C483        O509   1.245       .  S
O484       Mn504   1.951       .  S
O484       Mn485   1.973       .  S
O484       Mn518   1.967       .  S
O484      Mn2212   2.181       .  S
Mn485       O514   2.005       .  S
Mn485       O490   2.079       .  S
Mn485       O517   1.997       .  S
Mn485      O2203   2.115       .  S
O486       Mn500   2.039       .  S
O487        C489   1.251       .  A
O487       Mn494   2.021   1_455  S
C488        O514   1.246       .  A
C488        C698   1.480       .  S
C488        O501   1.248       .  S
C489        C711   1.486       .  S
O490        C515   1.254       .  A
O491      Mn2197   2.115       .  S
O491       Mn494   2.113       .  S
O491       Mn513   2.105       .  S
O491       Mn500   2.165   1_655  S
O492       Mn496   1.955       .  S
O492       Mn518   2.089       .  S
O492        C515   1.226       .  S
C493       O2231   1.211       .  A
C493       O2207   1.376       .  A
C493        C838   1.766       .  S
Mn494       O507   2.119       .  S
Mn494       O509   2.018   1_655  S
Mn494      O2213   1.968       .  S
O495       C2205   1.377       .  A
O495       Mn518   2.486       .  S
Mn496      O2192   2.138       .  S
Mn496       O512   2.119       .  S
Mn496       O506   1.959       .  S
O497        C499   1.269       .  A
O497      Mn2214   2.057       .  S
C498        O516   1.274       .  A
C498        C678   1.525       .  S
C499        O512   1.279       .  A
C499        C821   1.470       .  S
Mn500       O516   2.144       .  S
Mn500      O2190   2.078   1_455  S
Mn500      O2196   2.181   1_455  S
O501      Mn2206   1.968       .  S
O501       Mn504   1.972       .  S
Mn502      O2209   2.057       .  S
Mn502      O2190   2.142       .  S
Mn502      O2232   2.006       .  S
C503        C721   1.471       .  S
Mn504       O511   2.103       .  S
Mn504       O519   1.843       .  S
Mn504      O2221   1.931       .  S
C505        O511   1.252       .  A
C505        O521   1.242       .  A
C505        C671   1.426       .  S
O506       Mn518   2.042       .  S
O506       C2220   1.195       .  S
O507       C2189   1.275       .  A
C508        C831   1.565       .  S
C508       O2218   1.195   1_455  S
O509      Mn2216   1.931   1_455  S
O510       C2189   1.251       .  A
O510       Mn513   2.041       .  S
Mn513      O2232   2.037       .  S
C515        C731   1.476       .  S
O517        C522   1.233       .  A
Mn518       O521   1.994       .  S
O519       C2205   1.211       .  A
O520      Mn2214   2.005       .  S
O520      Mn2225   2.036       .  S
O520        C522   1.253       .  S
C522        C661   1.526       .  S
O523        C550   1.278       .  A
O523       Mn549   2.108       .  S
C524        O557   1.246       .  A
C524        O554   1.279   1_565  A
C524        C808   1.495       .  S
O525       Mn532   2.089   1_545  S
O525       Mn543   2.101       .  S
O525       Mn547   2.088       .  S
O525       Mn549   2.101       .  S
O526        C536   1.291       .  A
O526       Mn560   2.210       .  S
O527        C550   1.274       .  A
O527       Mn543   2.112       .  S
O528        C555   1.266       .  A
O528       Mn547   2.149       .  S
O529       Mn560   1.949       .  S
O529       Mn549   1.972       .  S
O529        C545   1.207       .  S
C530        O533   1.237       .  A
C530        C681   1.542       .  S
C530        O556   1.269       .  S
O531       Mn551   2.144       .  S
O531       Mn532   2.085   1_545  S
O531      Mn1421   2.125   1_545  S
O531       Mn547   2.256       .  S
Mn532      O1417   1.999       .  S
Mn532      O1393   2.176       .  S
Mn532      O1420   2.000       .  S
Mn532       O538   2.194   1_565  S
O533       Mn547   2.033       .  S
O534        C536   1.254       .  A
O534       Mn541   2.031       .  S
C535        O561   1.247       .  A
C535        C628   1.455       .  S
C535       O1404   1.241       .  S
C536        C621   1.489       .  S
O537        C562   1.264       .  A
O537      Mn1388   2.178       .  S
O538       Mn541   2.114       .  S
O538       Mn560   2.109       .  S
O538       Mn547   2.116       .  S
O539      Mn1399   2.020       .  S
O539       Mn565   2.082       .  S
O539        C562   1.226       .  S
C540        O566   1.241       .  A
C540        O542   1.291       .  A
C540        C801   1.491       .  S
Mn541       O554   2.186       .  S
Mn541       O556   2.068       .  S
Mn541       O548   1.966   1_545  S
O542      Mn1421   2.224   1_545  S
Mn543      O1415   2.143   1_545  S
Mn543      O1395   2.020   1_545  S
Mn543       O553   1.946       .  S
O544        C546   1.251       .  A
O544       Mn549   2.036   1_565  S
C545        O563   1.281       .  A
C545        C658   1.520       .  S
C546       O1415   1.274       .  A
C546       C1634   1.472       .  S
Mn547       O563   2.217       .  S
O548       Mn551   1.954   1_565  S
O548       C1391   1.241       .  S
Mn549       O567   1.947   1_545  S
C550        C648   1.476       .  S
Mn551      O1414   2.085   1_545  S
Mn551       O566   1.968       .  S
Mn551       O556   1.963       .  S
C552        O558   1.270       .  A
C552        O568   1.294       .  A
C552        C691   1.498       .  S
O553      Mn1421   1.992   1_545  S
O553        C555   1.211       .  S
C555        C788   1.464       .  S
O557       Mn560   2.034   1_565  S
O558      Mn1407   2.084       .  S
O559       C1402   1.274       .  A
O559      Mn1399   2.143       .  S
Mn560       O567   1.965   1_545  S
O561      Mn1388   1.999       .  S
C562        C638   1.547       .  S
O564       C1425   1.230       .  A
O564      Mn1388   2.002       .  S
Mn565      O1398   2.225       .  S
Mn565       O568   2.150       .  S
Mn565      O1387   2.125       .  S
Mn565      O1409   1.993       .  S
O567        C569   1.221       .  S
C569       O1420   1.230       .  A
C569       C1524   1.453       .  S
O570        C597   1.270       .  A
O570       Mn596   2.123       .  S
C571        O604   1.257       .  A
C571        O601   1.282   1_554  A
C571        C768   1.479       .  S
O572       Mn594   2.148   1_554  S
O572       Mn596   2.106   1_554  S
O573        C583   1.286       .  A
O573       Mn607   2.177       .  S
O574        C597   1.256       .  A
O575        C602   1.256       .  A
O575       Mn594   2.259       .  S
O576       Mn607   1.882       .  S
O576       Mn596   1.887       .  S
O576        C592   1.198       .  S
C577        O580   1.250       .  A
C577        C641   1.554       .  S
C577        O603   1.276       .  S
O578       Mn598   2.136       .  S
O578       Mn579   2.087       .  S
O578       Mn612   2.029       .  S
Mn579       O608   2.081       .  S
Mn579       O584   2.146       .  S
Mn579       O611   2.014       .  S
O580       Mn594   2.030       .  S
O581        C583   1.260       .  A
O581       Mn588   2.023       .  S
C582        O608   1.257       .  A
C582        C708   1.492       .  S
C582        O595   1.232       .  S
C583        C718   1.473       .  S
O584        C609   1.260       .  A
O585       Mn588   2.108       .  S
O585       Mn607   2.103       .  S
O585       Mn594   2.143       .  S
O586       Mn590   1.960       .  S
O586       Mn612   2.018       .  S
O586        C609   1.208       .  S
C587        O589   1.301       .  A
Mn588       O601   2.148       .  S
Mn588       O603   2.085       .  S
Mn590       O606   2.145       .  S
O591       Mn596   2.020   1_554  S
C592        O610   1.267       .  A
C592        C651   1.477       .  S
C593        O606   1.273       .  A
C593        C748   1.473       .  S
Mn594       O610   2.189       .  S
O595       Mn598   1.964       .  S
Mn596       O614   1.991   1_556  S
C597        C728   1.484       .  S
Mn598       O605   2.126       .  S
Mn598       O613   2.010       .  S
C599        O605   1.284       .  A
C599        O615   1.260       .  A
C599        C631   1.448       .  S
O600        C602   1.172       .  S
C602        C741   1.491       .  S
O604       Mn607   2.038   1_554  S
Mn607       O614   2.056   1_556  S
C609        C701   1.491       .  S
O611        C616   1.238       .  A
Mn612       O615   1.995       .  S
C616        C618   1.491       .  S
C617        C618   1.419       .  A
C617        C622   1.403       .  A
C617        F624   1.356       .  S
C618        C619   1.396       .  A
C619        C620   1.407       .  A
C619        F626   1.358       .  S
C620        C621   1.422       .  A
C620        F625   1.351       .  S
C621        C622   1.398       .  A
C622        F623   1.356       .  S
C627        C628   1.422       .  A
C627        C632   1.398       .  A
C627        F634   1.358       .  S
C628        C629   1.388       .  A
C629        C630   1.373       .  A
C629        F636   1.356       .  S
C630        C631   1.412       .  A
C630        F635   1.360       .  S
C631        C632   1.392       .  A
C632        F633   1.357       .  S
C637        C638   1.426       .  A
C637        C642   1.446       .  A
C637        F644   1.356       .  S
C638        C639   1.403       .  A
C639        C640   1.412       .  A
C639        F646   1.351       .  S
C640        C641   1.417       .  A
C640        F645   1.344       .  S
C641        C642   1.415       .  A
C642        F643   1.348       .  S
C647        C648   1.392       .  A
C647        C652   1.387       .  A
C647        F654   1.358       .  S
C648        C649   1.415       .  A
C649        C650   1.404       .  A
C649        F656   1.351       .  S
C650        C651   1.397       .  A
C650        F655   1.356       .  S
C651        C652   1.421       .  A
C652        F653   1.354       .  S
C657        C658   1.430       .  A
C657        C662   1.422       .  A
C657        F664   1.358       .  S
C658        C659   1.398       .  A
C659        C660   1.412       .  A
C659        F666   1.357       .  S
C660        C661   1.430       .  A
C660        F665   1.356       .  S
C661        C662   1.404       .  A
C662        F663   1.357       .  S
C667        C668   1.395       .  A
C667        C672   1.382       .  A
C667        F674   1.358       .  S
C668       C1425   1.454       .  S
C668        C669   1.414       .  A
C669        C670   1.388       .  A
C669        F676   1.359       .  S
C670        C671   1.394       .  A
C670        F675   1.358       .  S
C671        C672   1.403       .  A
C672        F673   1.359       .  S
C677        C678   1.421       .  A
C677        C682   1.439       .  A
C677        F684   1.357       .  S
C678        C679   1.393       .  A
C679        C680   1.403       .  A
C679        F686   1.358       .  S
C680        C681   1.412       .  A
C680        F685   1.336       .  S
C681        C682   1.421       .  A
C682        F683   1.357       .  S
C687        C688   1.399       .  A
C687        C692   1.396       .  A
C687        F694   1.331       .  S
C688        C689   1.402       .  A
C689        C690   1.412       .  A
C689        F696   1.357       .  S
C690        C691   1.422       .  A
C690        F695   1.352       .  S
C691        C692   1.392       .  A
C692        F693   1.355       .  S
C697        C698   1.426       .  A
C697        C702   1.403       .  A
C697        F704   1.357       .  S
C698        C699   1.385       .  A
C699        C700   1.385       .  A
C699        F706   1.357       .  S
C700        C701   1.417       .  A
C700        F705   1.339       .  S
C701        C702   1.397       .  A
C702        F703   1.357       .  S
C707        C708   1.403       .  A
C707        C712   1.396       .  A
C707        F714   1.358       .  S
C708        C709   1.417       .  A
C709        C710   1.410       .  A
C709        F716   1.357       .  S
C710        C711   1.398       .  A
C710        F715   1.352       .  S
C711        C712   1.414       .  A
C712        F713   1.359       .  S
C717        C718   1.410       .  A
C717        C722   1.393       .  A
C717        F724   1.359       .  S
C718        C719   1.402       .  A
C719        C720   1.402       .  A
C719        F726   1.355       .  S
C720        C721   1.409       .  A
C720        F725   1.358       .  S
C721        C722   1.400       .  A
C722        F723   1.355       .  S
C727        C728   1.413       .  A
C727        C732   1.394       .  A
C727        F734   1.357       .  S
C728        C729   1.405       .  A
C729        C730   1.393       .  A
C729        F736   1.348       .  S
C730        C731   1.408       .  A
C730        F735   1.359       .  S
C731        C732   1.406       .  A
C732        F733   1.358       .  S
C737        C742   1.424       .  A
C737        F744   1.351       .  S
C738        C739   1.358       .  A
C739        C740   1.395       .  A
C739        F746   1.351       .  S
C740        F745   1.345       .  S
C741        C742   1.417       .  A
C742        F743   1.352       .  S
C747        C752   1.411       .  A
C747        F754   1.357       .  S
C748        C749   1.400       .  A
C749        C750   1.384       .  A
C749        F756   1.348       .  S
C750        C751   1.408       .  A
C750        F755   1.359       .  S
C752        F753   1.357       .  S
C757        C758   1.471       .  A
C757        C762   1.436       .  A
C757        F764   1.351       .  S
C759        F766   1.348   1_554  S
C760        C761   1.416       .  A
C761        C762   1.418       .  A
C762        F763   1.357       .  S
C767        C772   1.404       .  A
C767        F774   1.358       .  S
C768        C769   1.399   1_554  A
C769        C770   1.385       .  A
C769        F776   1.359       .  S
C770        C771   1.411       .  A
C770        F775   1.353       .  S
C772        F773   1.358       .  S
C777       C1634   1.404   1_545  A
C777        C782   1.403       .  A
C777        F784   1.357       .  S
C778       C1402   1.472       .  S
C778       C1633   1.404       .  A
C778        C779   1.407       .  A
C779        C780   1.392       .  A
C779        F786   1.359       .  S
C780        C781   1.408       .  A
C780        F785   1.358       .  S
C781       C1638   1.411       .  A
C782       C1637   1.411   1_545  A
C782        F783   1.358       .  S
C787        C788   1.406       .  A
C787        C792   1.387       .  A
C787        F794   1.355       .  S
C788        C789   1.390       .  A
C789        C790   1.405       .  A
C789        F796   1.351       .  S
C790        C791   1.411       .  A
C790        F795   1.358       .  S
C791        C792   1.405       .  A
C792       F1649   1.359       .  S
F793       C1648   1.359       .  S
C797        C798   1.409       .  A
C797        C802   1.413       .  A
C797        F804   1.357       .  S
C798        C799   1.421       .  A
C799        C800   1.410       .  A
C799       F1662   1.358   1_545  S
C800        C801   1.403       .  A
C800       F1661   1.353   1_545  S
C801        C802   1.417       .  A
C802        F803   1.349       .  S
F805       C1656   1.353       .  S
F806       C1655   1.358       .  S
C807        C808   1.397       .  A
C807        C812   1.403       .  A
C807        F814   1.357       .  S
C808        C809   1.420       .  A
C809        C810   1.401       .  A
C809        F816   1.350       .  S
C810        C811   1.394       .  A
C810        F815   1.357       .  S
C811        C812   1.421       .  A
C812        F813   1.354       .  S
C817        C818   1.400       .  A
C817        C822   1.407       .  A
C817        F824   1.355       .  S
C818        C819   1.417       .  A
C819        C820   1.386       .  A
C819       F2538   1.345       .  S
C820        C821   1.387       .  A
C820        F825   1.359       .  S
C821        C822   1.412       .  A
C822        F823   1.353       .  S
F826       C2531   1.345       .  S
C827       C2540   1.416       .  A
C827        C832   1.422       .  A
C827        F834   1.358       .  S
C828       C2539   1.416       .  A
C828        C829   1.423       .  A
C829        C830   1.451       .  A
C829        F836   1.354       .  S
C830        C831   1.423       .  A
C830        F835   1.354       .  S
C831       C2544   1.426       .  A
C832       C2543   1.425       .  A
C832        F833   1.357       .  S
C837       C2550   1.548       .  A
C837        C842   1.437       .  A
C837        F844   1.356       .  S
C838       C2549   1.550       .  A
C838        C839   1.514   1_655  A
C839        C840   1.420       .  A
C839        F846   1.350       .  S
C840        C841   1.416   1_455  A
C840        F845   1.351       .  S
C841       C2158   1.563       .  S
C841       C2554   1.394       .  A
C842       C2553   1.392       .  A
C842        F843   1.336       .  S
C847        C848   1.411       .  A
C847        C852   1.399       .  A
C847        F854   1.358       .  S
C848       C2561   1.390       .  A
C849       C2560   1.390       .  A
C849        C850   1.378       .  A
C849        F856   1.360       .  S
C850       C2563   1.418       .  A
C850        F855   1.341   1_655  S
C851       C2562   1.418       .  A
C851        C852   1.406       .  A
C852        F853   1.358       .  S
O857        C884   1.253       .  A
O857       Mn883   2.007       .  S
C858       O2603   1.262       .  A
C858       O2600   1.245       .  A
C858       C1279   1.484       .  S
O859      Mn3006   2.071       .  S
O859      Mn1733   2.109       .  S
O859       Mn883   2.020   1_655  S
O860        C870   1.278       .  A
O860       Mn894   2.201       .  S
O861      Mn2589   2.130   1_455  S
O862        C889   1.282       .  A
O862       Mn881   2.249       .  S
O863      Mn1322   1.898       .  S
O863       Mn883   1.933       .  S
O863        C879   1.195       .  S
C864        O867   1.229       .  A
C864       C1189   1.519       .  S
C864        O890   1.271       .  S
O865       Mn885   2.071   1_556  S
O865      Mn1327   2.159       .  S
O865      Mn3021   2.141       .  S
Mn866       O895   2.029       .  S
Mn866      O1299   2.094   1_554  S
Mn866      O1326   2.055       .  S
Mn866      O2999   2.071   1_554  S
Mn866      O2584   2.161       .  S
O867      Mn1309   1.930   1_554  S
O868        C870   1.248       .  A
O868       Mn875   2.029       .  S
C869        O895   1.254       .  A
C869       C1239   1.489       .  S
C870       C1226   1.514       .  S
O871      Mn1294   2.091       .  S
O872      Mn2578   2.160   1_455  S
O872       Mn875   2.229       .  S
O872       Mn894   2.273       .  S
O873       Mn877   1.922   1_565  S
O873       Mn899   1.986       .  S
O873        C896   1.225       .  S
C874        O900   1.209       .  A
C874       O1304   1.284   1_554  A
C874       C2981   1.563       .  S
Mn875       O888   2.108   1_455  S
Mn875      O1738   1.989   1_455  S
O876       C1302   1.284       .  A
O876       Mn899   2.299       .  S
Mn877      O2573   2.130       .  S
Mn877      O1715   2.108       .  S
Mn877       O887   2.065   1_545  S
O878        C880   1.264       .  A
O878      Mn2595   2.037       .  S
C879        O897   1.248       .  A
C879       C1199   1.469       .  S
C880        O893   1.285       .  A
C880       C1246   1.482       .  S
Mn881      O1295   1.930       .  S
Mn881      O3005   2.141   1_455  S
O882      Mn1731   1.989       .  S
O882       Mn885   1.954       .  S
Mn883      O2590   2.033   1_455  S
Mn883       O901   1.987   1_455  S
C884       C1219   1.447       .  S
Mn885       O892   2.221       .  S
Mn885       O900   2.013       .  S
Mn885      O2602   2.041       .  S
C886        O892   1.290       .  A
C886       O1330   1.238   1_554  A
C886       C1166   1.484       .  S
O887       Mn899   2.032       .  S
O887       C2601   1.220       .  S
O888       C2570   1.245       .  A
C889       C1256   1.563       .  S
C889       O2599   1.220   1_455  S
O890      Mn2597   2.040   1_455  S
O891       C2570   1.262       .  A
O891       Mn894   1.972   1_655  S
Mn894      O1291   1.898       .  S
Mn894      O1329   1.989   1_455  S
C896       C1209   1.481       .  S
O898        C903   1.253       .  A
O898      Mn1294   2.056       .  S
Mn899       O902   1.968       .  S
Mn899      O1293   2.160       .  S
O901      Mn1322   1.988   1_655  S
O901       C2615   1.230       .  S
O902       C1314   1.238       .  A
C903       C1607   1.492       .  S
C903       O2613   1.230       .  S
O904        C931   1.270       .  A
O904       Mn930   2.064   1_455  S
C905       O2650   1.251       .  A
C905       O2647   1.275       .  A
C905       C1276   1.459       .  S
O906       Mn913   2.094       .  S
O906       Mn924   2.099       .  S
O906      Mn2640   2.078       .  S
O906      Mn2642   2.141       .  S
O907        C917   1.288       .  A
O907       Mn941   2.211   1_455  S
O908        C931   1.287       .  A
O908      Mn2636   2.137   1_455  S
O909        C936   1.285       .  A
O909       Mn928   2.312       .  S
O910       Mn941   1.968   1_455  S
O910       Mn930   2.030   1_455  S
O910        C926   1.243       .  S
C911        O914   1.241       .  A
C911       C1116   1.493       .  S
C911        O937   1.245       .  S
O912       Mn932   1.948       .  S
O912       Mn913   1.973       .  S
O912       Mn946   1.970       .  S
O912      Mn2640   2.181       .  S
Mn913       O942   2.004       .  S
Mn913       O918   2.079       .  S
Mn913       O945   1.996       .  S
Mn913      O2631   2.115       .  S
O914       Mn928   2.039       .  S
O915        C917   1.251       .  A
O915       Mn922   2.021   1_455  S
C916        O942   1.246       .  A
C916       C1126   1.479       .  S
C916        O929   1.248       .  S
C917       C1139   1.485       .  S
O918        C943   1.254       .  A
O919      Mn2625   2.115       .  S
O919       Mn922   2.113       .  S
O919       Mn941   2.105       .  S
O919       Mn928   2.165   1_655  S
O920       Mn924   1.954       .  S
O920       Mn946   2.084       .  S
O920        C943   1.226       .  S
C921       O2659   1.210       .  A
C921       O2635   1.376       .  A
C921       C1266   1.767       .  S
Mn922       O935   2.117       .  S
Mn922       O937   2.017   1_655  S
Mn922      O2641   1.967       .  S
O923       C2633   1.375       .  A
O923       Mn946   2.480       .  S
Mn924      O2620   2.137       .  S
Mn924       O940   2.118       .  S
Mn924       O934   1.959       .  S
O925        C927   1.270       .  A
O925      Mn2642   2.058       .  S
C926        O944   1.274       .  A
C926       C1106   1.524       .  S
C927        O940   1.279       .  A
C927       C1249   1.470       .  S
Mn928       O944   2.143       .  S
Mn928      O2618   2.078   1_455  S
Mn928      O2624   2.181   1_455  S
O929      Mn2634   1.967       .  S
O929       Mn932   1.973       .  S
Mn930      O2637   2.058       .  S
Mn930      O2618   2.141       .  S
Mn930      O2660   2.006       .  S
C931       C1149   1.471       .  S
Mn932       O939   2.102       .  S
Mn932       O947   1.841       .  S
Mn932      O2649   1.930       .  S
C933        O939   1.251       .  A
C933        O949   1.242       .  A
C933       C1099   1.425       .  S
O934       Mn946   2.041       .  S
O934       C2648   1.195       .  S
O935       C2617   1.275       .  A
C936       C1259   1.565       .  S
C936       O2646   1.195   1_455  S
O937      Mn2644   1.930   1_455  S
O938       C2617   1.251       .  A
O938       Mn941   2.041       .  S
Mn941      O2660   2.037       .  S
C943       C1159   1.475       .  S
O945        C950   1.233       .  A
Mn946       O949   1.994       .  S
O947       C2633   1.211       .  A
O948      Mn2642   2.006       .  S
O948      Mn2653   2.038       .  S
O948        C950   1.253       .  S
C950       C1089   1.527       .  S
O951        C978   1.278       .  A
O951       Mn977   2.108       .  S
C952        O985   1.246       .  A
C952        O982   1.279       .  A
C952       C1236   1.494       .  S
O953       Mn960   2.089       .  S
O953       Mn971   2.101       .  S
O953       Mn975   2.088       .  S
O953       Mn977   2.101       .  S
O954        C964   1.291       .  A
O954       Mn988   2.210       .  S
O955        C978   1.274       .  A
O955       Mn971   2.111       .  S
O956        C983   1.266       .  A
O956       Mn975   2.149       .  S
O957       Mn988   1.950       .  S
O957       Mn977   1.972       .  S
O957        C973   1.207       .  S
C958        O961   1.237       .  A
C958       C1109   1.542       .  S
C958        O984   1.270       .  S
O959       Mn979   2.143       .  S
O959       Mn960   2.085       .  S
O959       Mn975   2.256       .  S
Mn960       O966   2.194       .  S
O961       Mn975   2.033       .  S
O962        C964   1.255       .  A
O962       Mn969   2.031       .  S
C963        O989   1.247       .  A
C963       C1056   1.455       .  S
C964       C1049   1.489       .  S
O965        C990   1.263       .  A
O966       Mn969   2.115       .  S
O966       Mn988   2.109       .  S
O966       Mn975   2.116       .  S
O967       Mn993   2.082       .  S
O967        C990   1.225       .  S
C968        O994   1.240       .  A
C968        O970   1.291       .  A
C968       C1229   1.490       .  S
Mn969       O982   2.185       .  S
Mn969       O984   2.067       .  S
Mn969       O976   1.966       .  S
Mn971       O981   1.946       .  S
O972        C974   1.250       .  A
O972       Mn977   2.035       .  S
C973        O991   1.281       .  A
C973       C1086   1.520       .  S
Mn975       O991   2.217       .  S
O976       Mn979   1.954       .  S
Mn977       O995   1.947       .  S
C978       C1076   1.476       .  S
Mn979       O994   1.967       .  S
Mn979       O984   1.964       .  S
C980        O986   1.270       .  A
C980        O996   1.293       .  A
C980       C1119   1.497       .  S
O981        C983   1.211       .  S
C983       C1216   1.464       .  S
O985       Mn988   2.034       .  S
Mn988       O995   1.964       .  S
C990       C1066   1.546       .  S
Mn993       O996   2.149       .  S
O995        C997   1.221       .  S
O998       C1025   1.270       .  A
O998      Mn1024   2.122       .  S
C999       O1032   1.257       .  A
C999       O1029   1.283       .  A
C999       C1196   1.479       .  S
O1000     Mn1435   2.163       .  S
O1000     Mn1446   2.041       .  S
O1000     Mn1022   2.148       .  S
O1000     Mn1024   2.105       .  S
O1001      C1011   1.286       .  A
O1001     Mn1035   2.177       .  S
O1002      C1025   1.256       .  A
O1002     Mn1446   2.064       .  S
O1003      C1030   1.256       .  A
O1003     Mn1022   2.259       .  S
O1004     Mn1035   1.882       .  S
O1004     Mn1024   1.886       .  S
O1004      C1020   1.198       .  S
C1005      O1008   1.250       .  A
C1005      C1069   1.553       .  S
C1005      O1031   1.275       .  S
O1006     Mn1026   2.136       .  S
O1006     Mn1007   2.087       .  S
O1006     Mn1040   2.030       .  S
O1006     Mn1450   2.231   1_554  S
Mn1007     O1036   2.080       .  S
Mn1007     O1012   2.145       .  S
Mn1007     O1039   2.014       .  S
Mn1007     O1428   2.163       .  S
Mn1007     O1441   2.127   1_554  S
O1008     Mn1022   2.029       .  S
O1009      C1011   1.260       .  A
O1009     Mn1016   2.024       .  S
C1010      O1036   1.257       .  A
C1010      C1136   1.491       .  S
C1010      O1023   1.232       .  S
C1011      C1146   1.473       .  S
O1012      C1037   1.259       .  A
O1013     Mn1435   2.127       .  S
O1013     Mn1016   2.108       .  S
O1013     Mn1035   2.103       .  S
O1013     Mn1022   2.144       .  S
O1014     Mn1018   1.960       .  S
O1014     Mn1040   2.018       .  S
O1014      C1037   1.208       .  S
C1015      O1469   1.210       .  A
C1015      O1017   1.300       .  A
C1015      C1614   1.700       .  S
Mn1016     O1029   2.148       .  S
Mn1016     O1031   2.084       .  S
Mn1016     O1451   1.926       .  S
O1017     Mn1468   2.204       .  S
Mn1018     O1430   2.064   1_554  S
Mn1018     O1034   2.146       .  S
Mn1018     O1428   2.041       .  S
Mn1018     O1456   1.919   1_554  S
O1019      C1449   1.259       .  A
O1019     Mn1024   2.020       .  S
C1020      O1038   1.267       .  A
C1020      C1079   1.477       .  S
C1021      O1447   1.259       .  A
C1021      O1034   1.273       .  A
C1021      C1176   1.474       .  S
Mn1022     O1038   2.189       .  S
Mn1022     O1434   2.231       .  S
O1023     Mn1444   1.926   1_554  S
O1023     Mn1026   1.964       .  S
Mn1024     O1042   1.990       .  S
C1025      C1156   1.483       .  S
Mn1026     O1033   2.126       .  S
Mn1026     O1041   2.009       .  S
Mn1026     O1459   2.046   1_554  S
C1027      O1033   1.284       .  A
C1027      O1043   1.259       .  A
C1027      C1059   1.448       .  S
O1028     Mn1446   1.919       .  S
O1028     Mn1468   1.867       .  S
O1028      C1030   1.172       .  S
C1030      C1169   1.490       .  S
O1031     Mn1454   2.047       .  S
O1032     Mn1035   2.038       .  S
Mn1035     O1042   2.056       .  S
C1037      C1129   1.489       .  S
O1039      C1044   1.238       .  A
Mn1040     O1445   2.204       .  S
Mn1040     O1043   1.995       .  S
Mn1040     O1456   1.867   1_554  S
O1041      C1443   1.210       .  A
O1042      C1472   1.239       .  S
C1044      C1046   1.491       .  S
C1044      O1470   1.239       .  S
C1045      C1046   1.419       .  A
C1045      C1050   1.403       .  A
C1045      F1052   1.355       .  S
C1046      C1047   1.396       .  A
C1047      C1048   1.407       .  A
C1047      F1054   1.358       .  S
C1048      C1049   1.422       .  A
C1048      F1053   1.351       .  S
C1049      C1050   1.398       .  A
C1050      F1051   1.356       .  S
C1055      C1056   1.422       .  A
C1055      C1060   1.398       .  A
C1055      F1062   1.358       .  S
C1056      C1057   1.388       .  A
C1057      C1058   1.373       .  A
C1057      F1064   1.356       .  S
C1058      C1059   1.412       .  A
C1058      F1063   1.360       .  S
C1059      C1060   1.391       .  A
C1060      F1061   1.357       .  S
C1065      C1066   1.426       .  A
C1065      C1070   1.445       .  A
C1065      F1072   1.356       .  S
C1066      C1067   1.403       .  A
C1067      C1068   1.412       .  A
C1067      F1074   1.351       .  S
C1068      C1069   1.417       .  A
C1068      F1073   1.345       .  S
C1069      C1070   1.416       .  A
C1070      F1071   1.348       .  S
C1075      C1076   1.392       .  A
C1075      C1080   1.387       .  A
C1075      F1082   1.358       .  S
C1076      C1077   1.415       .  A
C1077      C1078   1.404       .  A
C1077      F1084   1.351       .  S
C1078      C1079   1.397       .  A
C1078      F1083   1.356       .  S
C1079      C1080   1.421       .  A
C1080      F1081   1.354       .  S
C1085      C1086   1.430       .  A
C1085      C1090   1.422       .  A
C1085      F1092   1.358       .  S
C1086      C1087   1.397       .  A
C1087      C1088   1.412       .  A
C1087      F1094   1.357       .  S
C1088      C1089   1.430       .  A
C1088      F1093   1.356       .  S
C1089      C1090   1.404       .  A
C1090      F1091   1.357       .  S
C1095      C1096   1.394       .  A
C1095      C1100   1.381       .  A
C1095      F1102   1.358       .  S
C1096      C1097   1.414       .  A
C1097      C1098   1.388       .  A
C1097      F1104   1.359       .  S
C1098      C1099   1.393       .  A
C1098      F1103   1.358       .  S
C1099      C1100   1.403       .  A
C1100      F1101   1.359       .  S
C1105      C1106   1.421       .  A
C1105      C1110   1.439       .  A
C1105      F1112   1.357       .  S
C1106      C1107   1.393       .  A
C1107      C1108   1.403       .  A
C1107      F1114   1.358       .  S
C1108      C1109   1.412       .  A
C1108      F1113   1.336       .  S
C1109      C1110   1.421       .  A
C1110      F1111   1.357       .  S
C1115      C1116   1.399       .  A
C1115      C1120   1.396       .  A
C1115      F1122   1.331       .  S
C1116      C1117   1.402       .  A
C1117      C1118   1.412       .  A
C1117      F1124   1.357       .  S
C1118      C1119   1.422       .  A
C1118      F1123   1.352       .  S
C1119      C1120   1.392       .  A
C1120      F1121   1.355       .  S
C1125      C1126   1.426       .  A
C1125      C1130   1.403       .  A
C1125      F1132   1.357       .  S
C1126      C1127   1.384       .  A
C1127      C1128   1.384       .  A
C1127      F1134   1.357       .  S
C1128      C1129   1.416       .  A
C1128      F1133   1.339       .  S
C1129      C1130   1.396       .  A
C1130      F1131   1.357       .  S
C1135      C1136   1.403       .  A
C1135      C1140   1.396       .  A
C1135      F1142   1.358       .  S
C1136      C1137   1.417       .  A
C1137      C1138   1.410       .  A
C1137      F1144   1.357       .  S
C1138      C1139   1.398       .  A
C1138      F1143   1.352       .  S
C1139      C1140   1.414       .  A
C1140      F1141   1.359       .  S
C1145      C1146   1.410       .  A
C1145      C1150   1.393       .  A
C1145      F1152   1.359       .  S
C1146      C1147   1.403       .  A
C1147      C1148   1.402       .  A
C1147      F1154   1.355       .  S
C1148      C1149   1.409       .  A
C1148      F1153   1.358       .  S
C1149      C1150   1.400       .  A
C1150      F1151   1.355       .  S
C1155      C1156   1.413       .  A
C1155      C1160   1.394       .  A
C1155      F1162   1.357       .  S
C1156      C1157   1.405       .  A
C1157      C1158   1.392       .  A
C1157      F1164   1.348       .  S
C1158      C1159   1.408       .  A
C1158      F1163   1.359       .  S
C1159      C1160   1.406       .  A
C1160      F1161   1.359       .  S
C1165      C1594   1.424       .  A
C1165      C1170   1.424       .  A
C1165      F1172   1.351       .  S
C1166      C1593   1.424   1_554  A
C1166      C1167   1.357       .  A
C1167      C1168   1.394   1_554  A
C1167      F1174   1.352       .  S
C1168      C1597   1.422       .  A
C1168      F1173   1.344   1_556  S
C1169      C1596   1.422       .  A
C1169      C1170   1.417       .  A
C1170      F1171   1.352       .  S
C1175      C1604   1.408       .  A
C1175      C1180   1.411       .  A
C1175      F1182   1.357       .  S
C1176      C1603   1.408       .  A
C1176      C1177   1.400       .  A
C1177      C1178   1.384       .  A
C1177      F1184   1.348       .  S
C1178      C1179   1.408       .  A
C1178      F1183   1.359       .  S
C1179      C1331   1.491       .  S
C1179      C1608   1.415       .  A
C1180      C1607   1.416       .  A
C1180      F1181   1.357       .  S
C1185      C1186   1.470       .  A
C1185      C1190   1.436       .  A
C1185      F1192   1.351       .  S
C1186      C1443   1.700       .  S
C1186      C1615   1.523       .  A
C1187      C1614   1.523       .  A
C1187      C1616   1.397       .  A
C1187      F1194   1.347       .  S
C1188      C1615   1.397       .  A
C1188      C1189   1.416       .  A
C1188      F1621   1.354   1_554  S
C1189      C1190   1.418       .  A
C1190      F1191   1.357       .  S
F1193      C1616   1.354       .  S
C1195      C1624   1.418       .  A
C1195      C1200   1.404       .  A
C1195      F1202   1.358       .  S
C1196      C1623   1.418       .  A
C1196      C1197   1.399       .  A
C1197      C1198   1.386       .  A
C1197      F1204   1.359       .  S
C1198      C1199   1.411       .  A
C1198      F1203   1.353       .  S
C1199      C1628   1.400       .  A
C1200      C1627   1.400   1_554  A
C1200      F1201   1.358       .  S
C1205      C1210   1.402       .  A
C1205      F1212   1.357       .  S
C1206      C1207   1.407       .  A
C1207      C1208   1.392       .  A
C1207      F1214   1.359       .  S
C1208      C1209   1.408       .  A
C1208      F1213   1.358       .  S
C1210      F1211   1.358       .  S
C1215      C1216   1.406       .  A
C1215      C1220   1.387       .  A
C1215      F1222   1.355       .  S
C1216      C1217   1.390       .  A
C1217      C1218   1.405       .  A
C1217      F1224   1.351       .  S
C1218      C1219   1.411       .  A
C1218      F1223   1.358       .  S
C1219      C1220   1.405       .  A
C1225      C1226   1.408       .  A
C1225      C1230   1.412       .  A
C1225      F1232   1.357       .  S
C1226      C1227   1.422       .  A
C1227      C1228   1.410       .  A
C1228      C1229   1.403       .  A
C1229      C1230   1.417       .  A
C1230      F1231   1.349       .  S
C1235      C1236   1.397       .  A
C1235      C1240   1.403       .  A
C1235      F1242   1.357       .  S
C1236      C1237   1.420       .  A
C1237      C1238   1.400       .  A
C1237      F1244   1.350       .  S
C1238      C1239   1.394       .  A
C1238      F1243   1.357       .  S
C1239      C1240   1.421       .  A
C1240      F1241   1.354       .  S
C1245      C1246   1.401       .  A
C1245      C1250   1.407       .  A
C1245      F1252   1.355       .  S
C1246      C1247   1.417       .  A
C1247      C1248   1.386       .  A
C1247      F2966   1.345       .  S
C1248      C1249   1.387       .  A
C1248      F1253   1.359       .  S
C1249      C1250   1.412       .  A
C1250      F1251   1.354       .  S
F1254      C2959   1.345       .  S
C1255      C2968   1.416       .  A
C1255      C1260   1.422       .  A
C1255      F1262   1.358       .  S
C1256      C2967   1.416       .  A
C1256      C1257   1.424       .  A
C1257      C1258   1.451       .  A
C1257      F1264   1.354       .  S
C1258      C1259   1.423       .  A
C1258      F1263   1.354       .  S
C1259      C2972   1.425       .  A
C1260      C2971   1.425       .  A
C1260      F1261   1.357       .  S
C1265      C2978   1.550       .  A
C1265      C1270   1.437       .  A
C1265      F1272   1.357       .  S
C1266      C2977   1.550       .  A
C1266      C1267   1.514   1_655  A
C1267      C1268   1.420       .  A
C1267      F1274   1.350       .  S
C1268      C1269   1.416   1_455  A
C1268      F1273   1.351       .  S
C1269      C2586   1.563       .  S
C1269      C2982   1.394       .  A
C1270      C2981   1.395       .  A
C1270      F1271   1.336       .  S
C1275      C1276   1.411       .  A
C1275      C1280   1.399       .  A
C1275      F1282   1.358       .  S
C1276      C2989   1.390       .  A
C1277      C2988   1.390       .  A
C1277      C1278   1.378       .  A
C1277      F1284   1.360       .  S
C1278      C2991   1.418       .  A
C1278      F1283   1.341   1_655  S
C1279      C2990   1.418       .  A
C1279      C1280   1.406       .  A
C1280      F1281   1.358       .  S
O1285      C1312   1.252       .  A
O1285     Mn1311   2.006       .  S
C1286      O3031   1.262       .  A
C1286      O3028   1.245       .  A
C1286      C1707   1.484       .  S
O1287     Mn2578   2.069   1_556  S
O1287     Mn2161   2.108       .  S
O1287     Mn1311   2.018   1_655  S
O1288      C1298   1.278       .  A
O1288     Mn1322   2.200       .  S
O1289     Mn3017   2.130   1_455  S
O1290      C1317   1.282       .  A
O1290     Mn1309   2.249       .  S
O1291     Mn1311   1.934   1_554  S
O1291      C1307   1.195   1_554  S
C1292      O1295   1.229       .  A
C1292      C1617   1.518       .  S
C1292      O1318   1.271       .  S
O1293     Mn1313   2.071       .  S
O1293     Mn2593   2.141       .  S
Mn1294     O1323   2.029       .  S
Mn1294     O2571   2.069       .  S
Mn1294     O3012   2.160       .  S
O1296      C1298   1.248       .  A
O1296     Mn1303   2.030       .  S
C1297      O1323   1.254       .  A
C1297      C1667   1.488       .  S
C1298      C1654   1.514       .  S
O1300     Mn3006   2.161   1_455  S
O1300     Mn1303   2.229       .  S
O1300     Mn1322   2.272       .  S
O1301     Mn1305   1.922   1_565  S
O1301     Mn1327   1.986       .  S
O1301      C1324   1.225       .  S
C1302      O1328   1.209       .  A
C1302      C3409   1.563       .  S
Mn1303     O1316   2.109   1_455  S
Mn1303     O2166   1.989   1_455  S
O1304     Mn1327   2.298       .  S
Mn1305     O3001   2.130       .  S
Mn1305     O2143   2.109       .  S
Mn1305     O1315   2.065   1_545  S
O1306      C1308   1.264       .  A
O1306     Mn3023   2.035       .  S
C1307      O1325   1.248       .  A
C1307      C1627   1.469       .  S
C1308      O1321   1.285       .  A
C1308      C1674   1.482       .  S
Mn1309     O2577   2.141   1_455  S
O1310     Mn2159   1.989       .  S
O1310     Mn1313   1.954       .  S
Mn1311     O3018   2.037   1_455  S
Mn1311     O1329   1.988   1_456  S
C1312      C1647   1.447       .  S
Mn1313     O1320   2.221       .  S
Mn1313     O1328   2.013       .  S
Mn1313     O3030   2.041       .  S
C1314      O1320   1.290       .  A
C1314      C1594   1.484       .  S
O1315     Mn1327   2.032       .  S
O1315      C3029   1.220       .  S
O1316      C2998   1.245       .  A
C1317      C1684   1.563       .  S
C1317      O3027   1.220   1_455  S
O1318     Mn3025   2.040   1_455  S
O1319      C2998   1.262       .  A
O1319     Mn1322   1.971   1_655  S
C1324      C1637   1.481       .  S
O1326      C1331   1.252       .  A
Mn1327     O1330   1.968       .  S
O1329      C3043   1.230       .  S
C1331      O3041   1.230       .  S
O1332      C1359   1.270       .  A
O1332     Mn1358   2.064   1_455  S
C1333      O3078   1.251       .  A
C1333      O3075   1.275       .  A
C1333      C1704   1.459       .  S
O1334     Mn1341   2.094       .  S
O1334     Mn1352   2.098       .  S
O1334     Mn3068   2.078       .  S
O1334     Mn3070   2.141       .  S
O1335      C1345   1.288       .  A
O1335     Mn1369   2.212   1_455  S
O1336      C1359   1.287       .  A
O1336     Mn3064   2.137   1_455  S
O1337      C1364   1.285       .  A
O1337     Mn1356   2.312       .  S
O1338     Mn1369   1.968   1_455  S
O1338     Mn1358   2.031   1_455  S
O1338      C1354   1.243       .  S
C1339      O1342   1.241       .  A
C1339      C1544   1.493       .  S
C1339      O1365   1.245       .  S
O1340     Mn1360   1.948       .  S
O1340     Mn1341   1.973       .  S
O1340     Mn1374   1.969       .  S
O1340     Mn3068   2.181       .  S
Mn1341     O1370   2.004       .  S
Mn1341     O1346   2.079       .  S
Mn1341     O1373   1.996       .  S
Mn1341     O3059   2.115       .  S
O1342     Mn1356   2.039       .  S
O1343      C1345   1.250       .  A
O1343     Mn1350   2.021   1_455  S
C1344      O1370   1.246       .  A
C1344      C1554   1.479       .  S
C1344      O1357   1.248       .  S
C1345      C1567   1.486       .  S
O1346      C1371   1.254       .  A
O1347     Mn3053   2.115       .  S
O1347     Mn1350   2.113       .  S
O1347     Mn1369   2.105       .  S
O1347     Mn1356   2.165   1_655  S
O1348     Mn1352   1.954       .  S
O1348     Mn1374   2.085       .  S
O1348      C1371   1.226       .  S
C1349      O3087   1.211       .  A
C1349      O3063   1.376       .  A
C1349      C1694   1.766       .  S
Mn1350     O1363   2.119       .  S
Mn1350     O1365   2.018   1_655  S
Mn1350     O3069   1.967       .  S
O1351      C3061   1.376       .  A
O1351     Mn1374   2.480       .  S
Mn1352     O3048   2.137       .  S
Mn1352     O1368   2.118       .  S
Mn1352     O1362   1.959       .  S
O1353      C1355   1.270       .  A
O1353     Mn3070   2.058       .  S
C1354      O1372   1.274       .  A
C1354      C1534   1.524       .  S
C1355      O1368   1.279       .  A
C1355      C1677   1.470       .  S
Mn1356     O1372   2.143       .  S
Mn1356     O3046   2.078   1_455  S
Mn1356     O3052   2.181   1_455  S
O1357     Mn3062   1.967       .  S
O1357     Mn1360   1.973       .  S
Mn1358     O3065   2.058       .  S
Mn1358     O3046   2.141       .  S
Mn1358     O3088   2.006       .  S
C1359      C1577   1.471       .  S
Mn1360     O1367   2.102       .  S
Mn1360     O1375   1.841       .  S
Mn1360     O3077   1.930       .  S
C1361      O1367   1.251       .  A
C1361      O1377   1.242       .  A
C1361      C1527   1.425       .  S
O1362     Mn1374   2.041       .  S
O1362      C3076   1.195       .  S
O1363      C3045   1.275       .  A
C1364      C1687   1.565       .  S
C1364      O3074   1.195   1_455  S
O1365     Mn3072   1.931   1_455  S
O1366      C3045   1.251       .  A
O1366     Mn1369   2.041       .  S
Mn1369     O3088   2.037       .  S
C1371      C1587   1.475       .  S
O1373      C1378   1.233       .  A
Mn1374     O1377   1.994       .  S
O1375      C3061   1.210       .  A
O1376     Mn3070   2.006       .  S
O1376     Mn3081   2.038       .  S
O1376      C1378   1.253       .  S
C1378      C1517   1.527       .  S
O1379      C1406   1.278       .  A
O1379     Mn1405   2.109       .  S
C1380      O1413   1.247       .  A
C1380      O1410   1.278       .  A
C1380      C1664   1.493       .  S
O1381     Mn1388   2.089       .  S
O1381     Mn1399   2.101       .  S
O1381     Mn1403   2.088       .  S
O1381     Mn1405   2.101       .  S
O1382      C1392   1.290       .  A
O1382     Mn1416   2.210       .  S
O1383      C1406   1.274       .  A
O1383     Mn1399   2.111       .  S
O1384      C1411   1.266       .  A
O1384     Mn1403   2.148       .  S
O1385     Mn1416   1.950       .  S
O1385     Mn1405   1.972       .  S
O1385      C1401   1.207       .  S
C1386      O1389   1.237       .  A
C1386      C1537   1.542       .  S
C1386      O1412   1.269       .  S
O1387     Mn1407   2.144       .  S
O1387     Mn1388   2.086       .  S
O1387     Mn1403   2.256       .  S
Mn1388     O1394   2.195       .  S
O1389     Mn1403   2.033       .  S
O1390      C1392   1.255       .  A
O1390     Mn1397   2.032       .  S
C1391      O1417   1.247       .  A
C1391      C1484   1.455       .  S
C1392      C1477   1.489       .  S
O1393      C1418   1.263       .  A
O1394     Mn1397   2.114       .  S
O1394     Mn1416   2.109       .  S
O1394     Mn1403   2.116       .  S
O1395     Mn1421   2.082       .  S
O1395      C1418   1.225       .  S
C1396      O1422   1.241       .  A
C1396      O1398   1.291       .  A
C1396      C1657   1.491       .  S
Mn1397     O1410   2.182       .  S
Mn1397     O1412   2.066       .  S
Mn1397     O1404   1.966       .  S
Mn1399     O1409   1.947       .  S
O1400      C1402   1.251       .  A
O1400     Mn1405   2.036       .  S
C1401      O1419   1.281       .  A
C1401      C1514   1.520       .  S
Mn1403     O1419   2.218       .  S
O1404     Mn1407   1.953       .  S
Mn1405     O1423   1.947       .  S
C1406      C1504   1.477       .  S
Mn1407     O1422   1.968       .  S
Mn1407     O1412   1.963       .  S
C1408      O1414   1.270       .  A
C1408      O1424   1.293       .  A
C1408      C1547   1.498       .  S
O1409      C1411   1.211       .  S
C1411      C1644   1.464       .  S
O1413     Mn1416   2.035       .  S
Mn1416     O1423   1.964       .  S
C1418      C1494   1.546       .  S
Mn1421     O1424   2.150       .  S
O1423      C1425   1.221       .  S
O1426      C1453   1.270       .  A
O1426     Mn1452   2.122       .  S
C1427      O1460   1.257       .  A
C1427      O1457   1.283   1_554  A
C1427      C1624   1.479       .  S
O1428     Mn1450   2.148   1_554  S
O1428     Mn1452   2.105   1_554  S
O1429      C1439   1.286       .  A
O1429     Mn1463   2.177       .  S
O1430      C1453   1.256       .  A
O1431      C1458   1.256       .  A
O1431     Mn1450   2.259       .  S
O1432     Mn1463   1.882       .  S
O1432     Mn1452   1.887       .  S
O1432      C1448   1.198       .  S
C1433      O1436   1.250       .  A
C1433      C1497   1.553       .  S
C1433      O1459   1.275       .  S
O1434     Mn1454   2.136       .  S
O1434     Mn1435   2.087       .  S
O1434     Mn1468   2.030       .  S
Mn1435     O1464   2.081       .  S
Mn1435     O1440   2.146       .  S
Mn1435     O1467   2.014       .  S
O1436     Mn1450   2.029       .  S
O1437      C1439   1.260       .  A
O1437     Mn1444   2.023       .  S
C1438      O1464   1.257       .  A
C1438      C1564   1.492       .  S
C1438      O1451   1.232       .  S
C1439      C1574   1.473       .  S
O1440      C1465   1.260       .  A
O1441     Mn1444   2.108       .  S
O1441     Mn1463   2.103       .  S
O1441     Mn1450   2.144       .  S
O1442     Mn1446   1.960       .  S
O1442     Mn1468   2.018       .  S
O1442      C1465   1.208       .  S
C1443      O1445   1.300       .  A
Mn1444     O1457   2.149       .  S
Mn1444     O1459   2.085       .  S
Mn1446     O1462   2.146       .  S
O1447     Mn1452   2.020   1_554  S
C1448      O1466   1.267       .  A
C1448      C1507   1.477       .  S
C1449      O1462   1.273       .  A
C1449      C1604   1.474       .  S
Mn1450     O1466   2.189       .  S
O1451     Mn1454   1.965       .  S
Mn1452     O1470   1.990   1_556  S
C1453      C1584   1.483       .  S
Mn1454     O1461   2.125       .  S
Mn1454     O1469   2.009       .  S
C1455      O1461   1.284       .  A
C1455      O1471   1.259       .  A
C1455      C1487   1.448       .  S
O1456      C1458   1.172       .  S
C1458      C1597   1.490       .  S
O1460     Mn1463   2.038   1_554  S
Mn1463     O1470   2.056   1_556  S
C1465      C1557   1.489       .  S
O1467      C1472   1.238       .  A
Mn1468     O1471   1.995       .  S
C1472      C1474   1.491       .  S
C1473      C1474   1.419       .  A
C1473      C1478   1.403       .  A
C1473      F1480   1.355       .  S
C1474      C1475   1.396       .  A
C1475      C1476   1.406       .  A
C1475      F1482   1.358       .  S
C1476      C1477   1.422       .  A
C1476      F1481   1.351       .  S
C1477      C1478   1.398       .  A
C1478      F1479   1.356       .  S
C1483      C1484   1.422       .  A
C1483      C1488   1.398       .  A
C1483      F1490   1.358       .  S
C1484      C1485   1.388       .  A
C1485      C1486   1.373       .  A
C1485      F1492   1.356       .  S
C1486      C1487   1.412       .  A
C1486      F1491   1.360       .  S
C1487      C1488   1.391       .  A
C1488      F1489   1.357       .  S
C1493      C1494   1.426       .  A
C1493      C1498   1.445       .  A
C1493      F1500   1.356       .  S
C1494      C1495   1.403       .  A
C1495      C1496   1.412       .  A
C1495      F1502   1.351       .  S
C1496      C1497   1.417       .  A
C1496      F1501   1.345       .  S
C1497      C1498   1.416       .  A
C1498      F1499   1.348       .  S
C1503      C1504   1.393       .  A
C1503      C1508   1.387       .  A
C1503      F1510   1.358       .  S
C1504      C1505   1.415       .  A
C1505      C1506   1.404       .  A
C1505      F1512   1.351       .  S
C1506      C1507   1.397       .  A
C1506      F1511   1.356       .  S
C1507      C1508   1.421       .  A
C1508      F1509   1.354       .  S
C1513      C1514   1.430       .  A
C1513      C1518   1.422       .  A
C1513      F1520   1.358       .  S
C1514      C1515   1.398       .  A
C1515      C1516   1.412       .  A
C1515      F1522   1.357       .  S
C1516      C1517   1.430       .  A
C1516      F1521   1.356       .  S
C1517      C1518   1.404       .  A
C1518      F1519   1.357       .  S
C1523      C1524   1.394       .  A
C1523      C1528   1.381       .  A
C1523      F1530   1.358       .  S
C1524      C1525   1.414       .  A
C1525      C1526   1.388       .  A
C1525      F1532   1.359       .  S
C1526      C1527   1.393       .  A
C1526      F1531   1.358       .  S
C1527      C1528   1.403       .  A
C1528      F1529   1.359       .  S
C1533      C1534   1.421       .  A
C1533      C1538   1.439       .  A
C1533      F1540   1.357       .  S
C1534      C1535   1.393       .  A
C1535      C1536   1.402       .  A
C1535      F1542   1.358       .  S
C1536      C1537   1.411       .  A
C1536      F1541   1.336       .  S
C1537      C1538   1.421       .  A
C1538      F1539   1.357       .  S
C1543      C1544   1.399       .  A
C1543      C1548   1.396       .  A
C1543      F1550   1.330       .  S
C1544      C1545   1.402       .  A
C1545      C1546   1.412       .  A
C1545      F1552   1.357       .  S
C1546      C1547   1.422       .  A
C1546      F1551   1.352       .  S
C1547      C1548   1.392       .  A
C1548      F1549   1.355       .  S
C1553      C1554   1.426       .  A
C1553      C1558   1.403       .  A
C1553      F1560   1.357       .  S
C1554      C1555   1.384       .  A
C1555      C1556   1.385       .  A
C1555      F1562   1.357       .  S
C1556      C1557   1.416       .  A
C1556      F1561   1.339       .  S
C1557      C1558   1.396       .  A
C1558      F1559   1.357       .  S
C1563      C1564   1.403       .  A
C1563      C1568   1.396       .  A
C1563      F1570   1.358       .  S
C1564      C1565   1.417       .  A
C1565      C1566   1.410       .  A
C1565      F1572   1.357       .  S
C1566      C1567   1.398       .  A
C1566      F1571   1.352       .  S
C1567      C1568   1.414       .  A
C1568      F1569   1.359       .  S
C1573      C1574   1.410       .  A
C1573      C1578   1.393       .  A
C1573      F1580   1.359       .  S
C1574      C1575   1.402       .  A
C1575      C1576   1.402       .  A
C1575      F1582   1.355       .  S
C1576      C1577   1.409       .  A
C1576      F1581   1.358       .  S
C1577      C1578   1.400       .  A
C1578      F1579   1.355       .  S
C1583      C1584   1.413       .  A
C1583      C1588   1.394       .  A
C1583      F1590   1.357       .  S
C1584      C1585   1.405       .  A
C1585      C1586   1.392       .  A
C1585      F1592   1.348       .  S
C1586      C1587   1.408       .  A
C1586      F1591   1.359       .  S
C1587      C1588   1.406       .  A
C1588      F1589   1.359       .  S
C1593      C1598   1.424       .  A
C1593      F1600   1.351       .  S
C1594      C1595   1.357       .  A
C1595      C1596   1.394       .  A
C1595      F1602   1.352       .  S
C1596      F1601   1.344       .  S
C1597      C1598   1.417       .  A
C1598      F1599   1.352       .  S
C1603      C1608   1.410       .  A
C1603      F1610   1.357       .  S
C1604      C1605   1.400       .  A
C1605      C1606   1.384       .  A
C1605      F1612   1.348       .  S
C1606      C1607   1.408       .  A
C1606      F1611   1.359       .  S
C1608      F1609   1.357       .  S
C1613      C1614   1.470       .  A
C1613      C1618   1.436       .  A
C1613      F1620   1.351       .  S
C1615      F1622   1.347   1_554  S
C1616      C1617   1.416       .  A
C1617      C1618   1.418       .  A
C1618      F1619   1.357       .  S
C1623      C1628   1.404       .  A
C1623      F1630   1.358       .  S
C1624      C1625   1.399   1_554  A
C1625      C1626   1.386       .  A
C1625      F1632   1.359       .  S
C1626      C1627   1.411       .  A
C1626      F1631   1.353       .  S
C1628      F1629   1.358       .  S
C1633      C1638   1.403       .  A
C1633      F1640   1.357       .  S
C1634      C1635   1.407       .  A
C1635      C1636   1.392       .  A
C1635      F1642   1.359       .  S
C1636      C1637   1.408       .  A
C1636      F1641   1.358       .  S
C1638      F1639   1.358       .  S
C1643      C1644   1.406       .  A
C1643      C1648   1.386       .  A
C1643      F1650   1.355       .  S
C1644      C1645   1.391       .  A
C1645      C1646   1.405       .  A
C1645      F1652   1.352       .  S
C1646      C1647   1.411       .  A
C1646      F1651   1.358       .  S
C1647      C1648   1.405       .  A
C1653      C1654   1.409       .  A
C1653      C1658   1.413       .  A
C1653      F1660   1.357       .  S
C1654      C1655   1.421       .  A
C1655      C1656   1.410       .  A
C1656      C1657   1.403       .  A
C1657      C1658   1.417       .  A
C1658      F1659   1.349       .  S
C1663      C1664   1.398       .  A
C1663      C1668   1.403       .  A
C1663      F1670   1.357       .  S
C1664      C1665   1.419       .  A
C1665      C1666   1.399       .  A
C1665      F1672   1.350       .  S
C1666      C1667   1.393       .  A
C1666      F1671   1.357       .  S
C1667      C1668   1.421       .  A
C1668      F1669   1.354       .  S
C1673      C1674   1.400       .  A
C1673      C1678   1.407       .  A
C1673      F1680   1.355       .  S
C1674      C1675   1.417       .  A
C1675      C1676   1.386       .  A
C1675      F3394   1.345       .  S
C1676      C1677   1.387       .  A
C1676      F1681   1.359       .  S
C1677      C1678   1.412       .  A
C1678      F1679   1.353       .  S
F1682      C3387   1.345       .  S
C1683      C3396   1.416       .  A
C1683      C1688   1.422       .  A
C1683      F1690   1.358       .  S
C1684      C3395   1.416       .  A
C1684      C1685   1.424       .  A
C1685      C1686   1.451       .  A
C1685      F1692   1.354       .  S
C1686      C1687   1.423       .  A
C1686      F1691   1.354       .  S
C1687      C3400   1.425       .  A
C1688      C3399   1.425       .  A
C1688      F1689   1.357       .  S
C1693      C3406   1.550       .  A
C1693      C1698   1.437       .  A
C1693      F1700   1.357       .  S
C1694      C3405   1.550       .  A
C1694      C1695   1.514   1_655  A
C1695      C1696   1.420       .  A
C1695      F1702   1.350       .  S
C1696      C1697   1.416   1_455  A
C1696      F1701   1.351       .  S
C1697      C3014   1.563       .  S
C1697      C3410   1.394       .  A
C1698      C3409   1.394       .  A
C1698      F1699   1.336       .  S
C1703      C1704   1.410       .  A
C1703      C1708   1.399       .  A
C1703      F1710   1.358       .  S
C1704      C3417   1.390       .  A
C1705      C3416   1.390       .  A
C1705      C1706   1.378       .  A
C1705      F1712   1.360       .  S
C1706      C3419   1.418       .  A
C1706      F1711   1.341   1_655  S
C1707      C3418   1.418       .  A
C1707      C1708   1.406       .  A
C1708      F1709   1.358       .  S
O1713      C1740   1.253       .  A
O1713     Mn1739   2.007       .  S
C1714      C2135   1.484       .  S
O1715     Mn2593   2.082   1_545  S
O1715     Mn1739   2.020       .  S
O1716      C1726   1.278       .  A
O1716     Mn1750   2.200       .  S
O1717      C2596   1.277       .  A
O1718      C1745   1.282       .  A
O1718     Mn1737   2.250       .  S
O1719     Mn2178   1.899       .  S
O1719     Mn1739   1.934       .  S
O1719      C1735   1.195       .  S
C1720      O1723   1.229       .  A
C1720      C2045   1.518       .  S
C1720      O1746   1.271       .  S
O1721     Mn1741   2.071   1_556  S
O1721     Mn2578   2.081   1_556  S
O1721     Mn2183   2.164       .  S
Mn1722     O1751   2.029       .  S
Mn1722     O2155   2.094   1_554  S
Mn1722     O2182   2.054       .  S
Mn1722     O2577   2.079   1_544  S
O1723     Mn2165   1.931   1_554  S
O1724      C1726   1.248       .  A
O1724     Mn1731   2.030   1_545  S
C1725      O1751   1.254   1_565  A
C1725      C2095   1.489       .  S
C1725      O2594   1.254       .  S
C1726      C2082   1.514       .  S
O1727      C2608   1.255   1_545  A
O1727     Mn2150   2.094       .  S
O1728     Mn1731   2.229   1_545  S
O1728     Mn1750   2.272       .  S
O1728     Mn3021   2.260   1_544  S
O1729     Mn1733   1.922       .  S
O1729     Mn1755   1.986       .  S
O1729      C1752   1.225       .  S
C1730      O1756   1.206   1_655  A
C1730      O2160   1.284   1_554  A
Mn1731     O1744   2.109   1_565  S
Mn1731     O2602   2.017       .  S
O1732      C2158   1.283       .  A
O1732     Mn1755   2.298       .  S
Mn1733     O2605   2.158       .  S
Mn1733     O1743   2.066       .  S
O1734      C1736   1.264       .  A
C1735      O1753   1.248       .  A
C1735      C2055   1.469       .  S
C1736      O1749   1.285       .  A
C1736      C2102   1.481       .  S
Mn1737     O2151   1.933       .  S
Mn1737     O2609   2.178       .  S
Mn1737     O2571   2.084       .  S
Mn1737     O3012   2.260       .  S
O1738     Mn1741   1.953       .  S
O1738      C2581   1.254       .  S
Mn1739     O1757   1.987       .  S
C1740      O2573   1.277       .  A
C1740      C2075   1.446       .  S
Mn1741     O1748   2.216       .  S
Mn1741     O1756   2.004   1_655  S
C1742      O1748   1.289       .  A
C1742      O2186   1.239   1_554  A
C1742      C2022   1.484       .  S
O1743     Mn1755   2.032       .  S
C1745      C2112   1.562       .  S
O1746     Mn2587   2.017       .  S
O1747     Mn1750   1.971       .  S
O1749     Mn2589   2.157       .  S
Mn1750     O2147   1.899       .  S
Mn1750     O2185   1.988       .  S
C1752      O2583   1.255       .  A
C1752      C2065   1.481       .  S
O1753     Mn2593   2.177   1_545  S
O1754      C1759   1.252       .  A
O1754     Mn2150   2.055       .  S
Mn1755     O1758   1.968       .  S
Mn1755     O2149   2.160       .  S
O1757     Mn2178   1.988       .  S
O1758      C2170   1.238       .  A
C1759      C2463   1.492       .  S
O1760      C1787   1.270       .  A
O1760     Mn1786   2.064       .  S
C1761      C2132   1.459       .  S
O1762     Mn1769   2.095       .  S
O1762     Mn1780   2.098       .  S
O1763      C1773   1.288       .  A
O1763     Mn1797   2.211       .  S
O1764      C1787   1.287       .  A
O1765      C1792   1.285       .  A
O1765     Mn1784   2.312       .  S
O1766     Mn1797   1.969       .  S
O1766     Mn1786   2.030       .  S
O1766      C1782   1.243       .  S
C1767      O1770   1.241       .  A
C1767      C1972   1.493       .  S
C1767      O1793   1.246       .  S
O1768     Mn1788   1.950       .  S
O1768     Mn1769   1.973       .  S
O1768     Mn1802   1.967       .  S
Mn1769     O1798   2.005       .  S
Mn1769     O1774   2.079       .  S
Mn1769     O1801   1.996       .  S
O1770     Mn1784   2.039       .  S
O1771      C1773   1.250       .  A
O1771     Mn1778   2.021       .  S
C1772      O1798   1.246       .  A
C1772      C1982   1.480       .  S
C1772      O1785   1.248       .  S
C1773      C1995   1.486       .  S
O1774      C1799   1.254       .  A
O1775     Mn1778   2.113       .  S
O1775     Mn1797   2.105       .  S
O1775     Mn1784   2.165       .  S
O1776     Mn1780   1.955       .  S
O1776     Mn1802   2.089       .  S
O1776      C1799   1.226       .  S
C1777      C2122   1.767       .  S
Mn1778     O1791   2.119       .  S
Mn1778     O1793   2.018       .  S
O1779     Mn1802   2.486       .  S
Mn1780     O1796   2.119       .  S
Mn1780     O1790   1.958       .  S
O1781      C1783   1.270       .  A
C1782      O1800   1.274       .  A
C1782      C1962   1.524       .  S
C1783      O1796   1.279       .  A
C1783      C2105   1.470       .  S
Mn1784     O1800   2.143       .  S
O1785     Mn1788   1.972       .  S
C1787      C2005   1.471       .  S
Mn1788     O1795   2.103       .  S
Mn1788     O1803   1.843       .  S
C1789      O1795   1.252       .  A
C1789      O1805   1.242       .  A
C1789      C1955   1.426       .  S
O1790     Mn1802   2.042       .  S
C1792      C2115   1.565       .  S
O1794     Mn1797   2.041       .  S
C1799      C2015   1.476       .  S
O1801      C1806   1.233       .  A
Mn1802     O1805   1.994       .  S
O1804      C1806   1.253       .  S
C1806      C1945   1.526       .  S
O1807      C1834   1.278       .  A
O1807     Mn1833   2.108       .  S
C1808      O1841   1.246       .  A
C1808      O1838   1.279   1_565  A
C1808      C2092   1.495       .  S
O1809     Mn1816   2.089   1_545  S
O1809     Mn1827   2.101       .  S
O1809     Mn1831   2.088       .  S
O1809     Mn1833   2.101       .  S
O1810      C1820   1.291       .  A
O1810     Mn1844   2.210       .  S
O1811      C1834   1.274       .  A
O1811     Mn1827   2.112       .  S
O1812      C1839   1.266       .  A
O1812     Mn1831   2.149       .  S
O1813     Mn1844   1.949       .  S
O1813     Mn1833   1.972       .  S
O1813      C1829   1.207       .  S
C1814      O1817   1.237       .  A
C1814      C1965   1.542       .  S
C1814      O1840   1.269       .  S
O1815     Mn1835   2.144       .  S
O1815     Mn1816   2.085   1_545  S
O1815     Mn2705   2.125   1_545  S
O1815     Mn1831   2.256       .  S
Mn1816     O2701   1.999       .  S
Mn1816     O2677   2.176       .  S
Mn1816     O2704   2.000       .  S
Mn1816     O1822   2.194   1_565  S
O1817     Mn1831   2.033       .  S
O1818      C1820   1.254       .  A
O1818     Mn1825   2.031       .  S
C1819      O1845   1.247       .  A
C1819      C1912   1.455       .  S
C1819      O2688   1.242       .  S
C1820      C1905   1.489       .  S
O1821      C1846   1.264       .  A
O1821     Mn2672   2.177       .  S
O1822     Mn1825   2.114       .  S
O1822     Mn1844   2.109       .  S
O1822     Mn1831   2.116       .  S
O1823     Mn2683   2.019       .  S
O1823     Mn1849   2.082       .  S
O1823      C1846   1.226       .  S
C1824      O1850   1.241       .  A
C1824      O1826   1.291       .  A
C1824      C2085   1.491       .  S
Mn1825     O1838   2.186       .  S
Mn1825     O1840   2.068       .  S
Mn1825     O1832   1.966   1_545  S
O1826     Mn2705   2.225   1_545  S
Mn1827     O2699   2.143   1_545  S
Mn1827     O2679   2.020   1_545  S
Mn1827     O1837   1.946       .  S
O1828      C1830   1.251       .  A
O1828     Mn1833   2.036   1_565  S
C1829      O1847   1.281       .  A
C1829      C1942   1.520       .  S
C1830      O2699   1.274       .  A
C1830      C2918   1.472       .  S
Mn1831     O1847   2.217       .  S
O1832     Mn1835   1.953   1_565  S
O1832      C2675   1.241       .  S
Mn1833     O1851   1.947   1_545  S
C1834      C1932   1.477       .  S
Mn1835     O2698   2.084   1_545  S
Mn1835     O1850   1.968       .  S
Mn1835     O1840   1.963       .  S
C1836      O1842   1.270       .  A
C1836      O1852   1.293       .  A
C1836      C1975   1.497       .  S
O1837     Mn2705   1.992   1_545  S
O1837      C1839   1.211       .  S
C1839      C2072   1.464       .  S
O1841     Mn1844   2.034   1_565  S
O1842     Mn2691   2.084       .  S
O1843      C2686   1.274       .  A
O1843     Mn2683   2.143       .  S
Mn1844     O1851   1.965   1_545  S
O1845     Mn2672   1.999       .  S
C1846      C1922   1.547       .  S
O1848      C2709   1.230       .  A
O1848     Mn2672   2.002       .  S
Mn1849     O2682   2.225       .  S
Mn1849     O1852   2.150       .  S
Mn1849     O2671   2.125       .  S
Mn1849     O2693   1.993       .  S
O1851      C1853   1.221       .  S
C1853      O2704   1.230       .  A
C1853      C2808   1.453       .  S
O1854      C1881   1.270       .  A
O1854     Mn1880   2.123       .  S
C1855      O1888   1.257       .  A
C1855      O1885   1.283       .  A
C1855      C2052   1.479       .  S
O1856     Mn2291   2.162       .  S
O1856     Mn2302   2.040       .  S
O1856     Mn1878   2.148       .  S
O1856     Mn1880   2.106       .  S
O1857      C1867   1.286       .  A
O1857     Mn1891   2.177       .  S
O1858      C1881   1.256       .  A
O1858     Mn2302   2.064       .  S
O1859      C1886   1.256       .  A
O1859     Mn1878   2.259       .  S
O1860     Mn1891   1.882       .  S
O1860     Mn1880   1.887       .  S
O1860      C1876   1.198       .  S
C1861      O1864   1.250       .  A
C1861      C1925   1.554       .  S
C1861      O1887   1.275       .  S
O1862     Mn1882   2.136       .  S
O1862     Mn1863   2.086       .  S
O1862     Mn1896   2.029       .  S
O1862     Mn2306   2.231   1_554  S
Mn1863     O1892   2.081       .  S
Mn1863     O1868   2.146       .  S
Mn1863     O1895   2.014       .  S
Mn1863     O2284   2.162       .  S
Mn1863     O2297   2.127   1_554  S
O1864     Mn1878   2.030       .  S
O1865      C1867   1.260       .  A
O1865     Mn1872   2.023       .  S
C1866      O1892   1.257       .  A
C1866      C1992   1.492       .  S
C1866      O1879   1.232       .  S
C1867      C2002   1.473       .  S
O1868      C1893   1.260       .  A
O1869     Mn2291   2.127       .  S
O1869     Mn1872   2.108       .  S
O1869     Mn1891   2.103       .  S
O1869     Mn1878   2.143       .  S
O1870     Mn1874   1.960       .  S
O1870     Mn1896   2.019       .  S
O1870      C1893   1.208       .  S
C1871      O2325   1.207       .  A
C1871      O1873   1.300       .  A
C1871      C2470   1.704       .  S
Mn1872     O1885   2.148       .  S
Mn1872     O1887   2.085       .  S
Mn1872     O2307   1.926       .  S
O1873     Mn2324   2.204       .  S
Mn1874     O2286   2.064   1_554  S
Mn1874     O1890   2.145       .  S
Mn1874     O2284   2.041       .  S
Mn1874     O2312   1.918   1_554  S
O1875      C2305   1.259       .  A
O1875     Mn1880   2.020       .  S
C1876      O1894   1.267       .  A
C1876      C1935   1.478       .  S
C1877      O2303   1.259       .  A
C1877      O1890   1.273       .  A
C1877      C2032   1.474       .  S
Mn1878     O1894   2.189       .  S
Mn1878     O2290   2.231       .  S
O1879     Mn2300   1.926   1_554  S
O1879     Mn1882   1.964       .  S
Mn1880     O1898   1.990       .  S
C1881      C2012   1.484       .  S
Mn1882     O1889   2.126       .  S
Mn1882     O1897   2.010       .  S
Mn1882     O2315   2.047   1_554  S
C1883      O1889   1.284       .  A
C1883      O1899   1.260       .  A
C1883      C1915   1.448       .  S
O1884     Mn2302   1.920       .  S
O1884     Mn2324   1.866       .  S
O1884      C1886   1.172       .  S
C1886      C2025   1.491       .  S
O1887     Mn2310   2.047       .  S
O1888     Mn1891   2.038       .  S
Mn1891     O1898   2.056       .  S
C1893      C1985   1.491       .  S
O1895      C1900   1.238       .  A
Mn1896     O2301   2.204       .  S
Mn1896     O1899   1.995       .  S
Mn1896     O2312   1.867   1_554  S
O1897      C2299   1.209       .  A
O1898      C2328   1.239       .  S
C1900      C1902   1.491       .  S
C1900      O2326   1.239       .  S
C1901      C1902   1.419       .  A
C1901      C1906   1.403       .  A
C1901      F1908   1.356       .  S
C1902      C1903   1.396       .  A
C1903      C1904   1.407       .  A
C1903      F1910   1.358       .  S
C1904      C1905   1.422       .  A
C1904      F1909   1.351       .  S
C1905      C1906   1.398       .  A
C1906      F1907   1.356       .  S
C1911      C1912   1.422       .  A
C1911      C1916   1.398       .  A
C1911      F1918   1.358       .  S
C1912      C1913   1.388       .  A
C1913      C1914   1.374       .  A
C1913      F1920   1.356       .  S
C1914      C1915   1.412       .  A
C1914      F1919   1.360       .  S
C1915      C1916   1.391       .  A
C1916      F1917   1.357       .  S
C1921      C1922   1.426       .  A
C1921      C1926   1.445       .  A
C1921      F1928   1.356       .  S
C1922      C1923   1.403       .  A
C1923      C1924   1.412       .  A
C1923      F1930   1.351       .  S
C1924      C1925   1.417       .  A
C1924      F1929   1.344       .  S
C1925      C1926   1.415       .  A
C1926      F1927   1.348       .  S
C1931      C1932   1.393       .  A
C1931      C1936   1.387       .  A
C1931      F1938   1.358       .  S
C1932      C1933   1.415       .  A
C1933      C1934   1.404       .  A
C1933      F1940   1.351       .  S
C1934      C1935   1.397       .  A
C1934      F1939   1.356       .  S
C1935      C1936   1.421       .  A
C1936      F1937   1.354       .  S
C1941      C1942   1.429       .  A
C1941      C1946   1.422       .  A
C1941      F1948   1.358       .  S
C1942      C1943   1.398       .  A
C1943      C1944   1.412       .  A
C1943      F1950   1.357       .  S
C1944      C1945   1.430       .  A
C1944      F1949   1.356       .  S
C1945      C1946   1.404       .  A
C1946      F1947   1.357       .  S
C1951      C1952   1.395       .  A
C1951      C1956   1.382       .  A
C1951      F1958   1.358       .  S
C1952      C2709   1.454       .  S
C1952      C1953   1.414       .  A
C1953      C1954   1.388       .  A
C1953      F1960   1.359       .  S
C1954      C1955   1.394       .  A
C1954      F1959   1.358       .  S
C1955      C1956   1.403       .  A
C1956      F1957   1.359       .  S
C1961      C1962   1.421       .  A
C1961      C1966   1.439       .  A
C1961      F1968   1.357       .  S
C1962      C1963   1.393       .  A
C1963      C1964   1.403       .  A
C1963      F1970   1.358       .  S
C1964      C1965   1.412       .  A
C1964      F1969   1.336       .  S
C1965      C1966   1.421       .  A
C1966      F1967   1.357       .  S
C1971      C1972   1.399       .  A
C1971      C1976   1.397       .  A
C1971      F1978   1.330       .  S
C1972      C1973   1.402       .  A
C1973      C1974   1.412       .  A
C1973      F1980   1.357       .  S
C1974      C1975   1.422       .  A
C1974      F1979   1.352       .  S
C1975      C1976   1.392       .  A
C1976      F1977   1.355       .  S
C1981      C1982   1.426       .  A
C1981      C1986   1.403       .  A
C1981      F1988   1.357       .  S
C1982      C1983   1.385       .  A
C1983      C1984   1.385       .  A
C1983      F1990   1.357       .  S
C1984      C1985   1.417       .  A
C1984      F1989   1.339       .  S
C1985      C1986   1.397       .  A
C1986      F1987   1.357       .  S
C1991      C1992   1.403       .  A
C1991      C1996   1.396       .  A
C1991      F1998   1.358       .  S
C1992      C1993   1.417       .  A
C1993      C1994   1.410       .  A
C1993      F2000   1.357       .  S
C1994      C1995   1.398       .  A
C1994      F1999   1.352       .  S
C1995      C1996   1.414       .  A
C1996      F1997   1.359       .  S
C2001      C2002   1.410       .  A
C2001      C2006   1.393       .  A
C2001      F2008   1.359       .  S
C2002      C2003   1.402       .  A
C2003      C2004   1.402       .  A
C2003      F2010   1.355       .  S
C2004      C2005   1.409       .  A
C2004      F2009   1.358       .  S
C2005      C2006   1.400       .  A
C2006      F2007   1.355       .  S
C2011      C2012   1.413       .  A
C2011      C2016   1.394       .  A
C2011      F2018   1.357       .  S
C2012      C2013   1.405       .  A
C2013      C2014   1.393       .  A
C2013      F2020   1.348       .  S
C2014      C2015   1.408       .  A
C2014      F2019   1.359       .  S
C2015      C2016   1.406       .  A
C2016      F2017   1.358       .  S
C2021      C2450   1.424       .  A
C2021      C2026   1.424       .  A
C2021      F2028   1.351       .  S
C2022      C2449   1.423   1_554  A
C2022      C2023   1.358       .  A
C2023      C2024   1.395   1_554  A
C2023      F2030   1.351       .  S
C2024      C2453   1.423       .  A
C2024      F2029   1.345   1_556  S
C2025      C2452   1.423       .  A
C2025      C2026   1.417       .  A
C2026      F2027   1.352       .  S
C2031      C2460   1.408       .  A
C2031      C2036   1.411       .  A
C2031      F2038   1.357       .  S
C2032      C2459   1.408       .  A
C2032      C2033   1.400       .  A
C2033      C2034   1.384       .  A
C2033      F2040   1.348       .  S
C2034      C2035   1.408       .  A
C2034      F2039   1.359       .  S
C2035      C2187   1.491       .  S
C2035      C2464   1.415       .  A
C2036      C2463   1.415       .  A
C2036      F2037   1.357       .  S
C2041      C2042   1.472       .  A
C2041      C2046   1.436       .  A
C2041      F2048   1.351       .  S
C2042      C2299   1.702       .  S
C2042      C2471   1.523       .  A
C2043      C2470   1.525       .  A
C2043      C2472   1.397       .  A
C2043      F2050   1.348       .  S
C2044      C2471   1.397       .  A
C2044      C2045   1.416       .  A
C2044      F2477   1.354   1_554  S
C2045      C2046   1.418       .  A
C2046      F2047   1.357       .  S
F2049      C2472   1.354       .  S
C2051      C2480   1.418       .  A
C2051      C2056   1.404       .  A
C2051      F2058   1.358       .  S
C2052      C2479   1.418       .  A
C2052      C2053   1.399       .  A
C2053      C2054   1.385       .  A
C2053      F2060   1.359       .  S
C2054      C2055   1.411       .  A
C2054      F2059   1.353       .  S
C2055      C2484   1.400       .  A
C2056      C2483   1.400   1_554  A
C2056      F2057   1.358       .  S
C2061      C2918   1.404   1_545  A
C2061      C2066   1.403       .  A
C2061      F2068   1.357       .  S
C2062      C2686   1.472       .  S
C2062      C2917   1.404       .  A
C2062      C2063   1.407       .  A
C2063      C2064   1.392       .  A
C2063      F2070   1.359       .  S
C2064      C2065   1.408       .  A
C2064      F2069   1.358       .  S
C2065      C2922   1.411       .  A
C2066      C2921   1.411   1_545  A
C2066      F2067   1.358       .  S
C2071      C2072   1.406       .  A
C2071      C2076   1.387       .  A
C2071      F2078   1.355       .  S
C2072      C2073   1.390       .  A
C2073      C2074   1.404       .  A
C2073      F2080   1.351       .  S
C2074      C2075   1.411       .  A
C2074      F2079   1.358       .  S
C2075      C2076   1.405       .  A
C2076      F2933   1.359       .  S
F2077      C2932   1.359       .  S
C2081      C2082   1.409       .  A
C2081      C2086   1.413       .  A
C2081      F2088   1.357       .  S
C2082      C2083   1.421       .  A
C2083      C2084   1.410       .  A
C2083      F2946   1.358   1_545  S
C2084      C2085   1.403       .  A
C2084      F2945   1.353   1_545  S
C2085      C2086   1.417       .  A
C2086      F2087   1.349       .  S
F2089      C2940   1.353       .  S
F2090      C2939   1.358       .  S
C2091      C2092   1.397       .  A
C2091      C2096   1.403       .  A
C2091      F2098   1.357       .  S
C2092      C2093   1.420       .  A
C2093      C2094   1.401       .  A
C2093      F2100   1.350       .  S
C2094      C2095   1.394       .  A
C2094      F2099   1.357       .  S
C2095      C2096   1.421       .  A
C2096      F2097   1.354       .  S
C2101      C2102   1.400       .  A
C2101      C2106   1.407       .  A
C2101      F2108   1.355       .  S
C2102      C2103   1.417       .  A
C2103      C2104   1.386       .  A
C2104      C2105   1.387       .  A
C2104      F2109   1.359       .  S
C2105      C2106   1.412       .  A
C2106      F2107   1.353       .  S
C2111      C2116   1.422       .  A
C2111      F2118   1.358   1_455  S
C2112      C2113   1.423       .  A
C2113      C2114   1.451       .  A
C2113      F2120   1.354       .  S
C2114      C2115   1.423       .  A
C2114      F2119   1.354       .  S
C2116      F2117   1.357   1_455  S
C2121      C2126   1.437       .  A
C2121      F2128   1.356       .  S
C2122      C2123   1.515       .  A
C2123      C2124   1.421       .  A
C2123      F2130   1.350       .  S
C2124      C2125   1.416       .  A
C2124      F2129   1.351       .  S
C2126      F2127   1.336       .  S
C2131      C2132   1.411       .  A
C2131      C2136   1.399       .  A
C2131      F2138   1.358       .  S
C2133      C2134   1.378       .  A
C2133      F2140   1.360       .  S
C2134      F2139   1.341       .  S
C2135      C2136   1.406       .  A
C2136      F2137   1.358       .  S
O2141      C2168   1.253       .  A
O2141     Mn2167   2.007       .  S
C2142      C2563   1.484       .  S
O2143     Mn3021   2.082   1_545  S
O2143     Mn2167   2.020       .  S
O2144      C2154   1.278       .  A
O2144     Mn2178   2.201       .  S
O2145      C3024   1.277       .  A
O2146      C2173   1.282       .  A
O2146     Mn2165   2.249       .  S
O2147     Mn2167   1.934   1_554  S
O2147      C2163   1.195   1_554  S
C2148      O2151   1.230       .  A
C2148      C2473   1.517       .  S
C2148      O2174   1.271       .  S
O2149     Mn2169   2.071       .  S
O2149     Mn3006   2.079       .  S
Mn2150     O2179   2.028       .  S
Mn2150     O3005   2.080   1_545  S
O2152      C2154   1.248       .  A
O2152     Mn2159   2.030   1_545  S
C2153      O2179   1.254   1_565  A
C2153      C2523   1.489       .  S
C2153      O3022   1.254       .  S
C2154      C2510   1.514       .  S
O2155      C3036   1.255   1_545  A
O2156     Mn2159   2.229   1_545  S
O2156     Mn2178   2.272       .  S
O2156     Mn2593   2.260   1_545  S
O2157     Mn2161   1.925       .  S
O2157     Mn2183   1.989       .  S
O2157      C2180   1.225       .  S
C2158      O2184   1.209   1_655  A
Mn2159     O2172   2.109   1_565  S
Mn2159     O3030   2.017       .  S
O2160     Mn2183   2.303       .  S
Mn2161     O3033   2.158       .  S
Mn2161     O2171   2.065       .  S
O2162      C2164   1.264       .  A
C2163      O2181   1.248       .  A
C2163      C2483   1.469       .  S
C2164      O2177   1.285       .  A
C2164      C2530   1.482       .  S
Mn2165     O3037   2.178       .  S
Mn2165     O2999   2.083       .  S
Mn2165     O2584   2.260   1_556  S
O2166     Mn2169   1.953       .  S
O2166      C3009   1.254       .  S
Mn2167     O2185   1.988   1_556  S
C2168      O3001   1.277       .  A
C2168      C2503   1.446       .  S
Mn2169     O2176   2.221       .  S
Mn2169     O2184   2.012   1_655  S
C2170      O2176   1.290       .  A
C2170      C2450   1.484       .  S
O2171     Mn2183   2.031       .  S
C2173      C2540   1.563       .  S
O2174     Mn3015   2.015       .  S
O2175     Mn2178   1.971       .  S
O2177     Mn3017   2.158       .  S
C2180      O3011   1.254       .  A
C2180      C2493   1.481       .  S
O2181     Mn3021   2.178   1_545  S
O2182      C2187   1.252       .  A
Mn2183     O2186   1.968       .  S
O2188      C2215   1.270       .  A
O2188     Mn2214   2.064       .  S
C2189      C2560   1.459       .  S
O2190     Mn2197   2.095       .  S
O2190     Mn2208   2.099       .  S
O2191      C2201   1.288       .  A
O2191     Mn2225   2.211       .  S
O2192      C2215   1.287       .  A
O2193      C2220   1.285       .  A
O2193     Mn2212   2.312       .  S
O2194     Mn2225   1.969       .  S
O2194     Mn2214   2.031       .  S
O2194      C2210   1.243       .  S
C2195      O2198   1.240       .  A
C2195      C2400   1.493       .  S
C2195      O2221   1.246       .  S
O2196     Mn2216   1.949       .  S
O2196     Mn2197   1.973       .  S
O2196     Mn2230   1.969       .  S
Mn2197     O2226   2.005       .  S
Mn2197     O2202   2.078       .  S
Mn2197     O2229   1.995       .  S
O2198     Mn2212   2.038       .  S
O2199      C2201   1.250       .  A
O2199     Mn2206   2.021       .  S
C2200      O2226   1.246       .  A
C2200      C2410   1.480       .  S
C2200      O2213   1.248       .  S
C2201      C2423   1.485       .  S
O2202      C2227   1.254       .  A
O2203     Mn2206   2.112       .  S
O2203     Mn2225   2.104       .  S
O2203     Mn2212   2.165       .  S
O2204     Mn2208   1.954       .  S
O2204     Mn2230   2.085       .  S
O2204      C2227   1.226       .  S
C2205      C2550   1.768       .  S
Mn2206     O2219   2.119       .  S
Mn2206     O2221   2.018       .  S
O2207     Mn2230   2.480       .  S
Mn2208     O2224   2.119       .  S
Mn2208     O2218   1.960       .  S
O2209      C2211   1.269       .  A
C2210      O2228   1.274       .  A
C2210      C2390   1.524       .  S
C2211      O2224   1.279       .  A
C2211      C2533   1.470       .  S
Mn2212     O2228   2.142       .  S
O2213     Mn2216   1.973       .  S
C2215      C2433   1.471       .  S
Mn2216     O2223   2.102       .  S
Mn2216     O2231   1.841       .  S
C2217      O2223   1.251       .  A
C2217      O2233   1.242       .  A
C2217      C2383   1.426       .  S
O2218     Mn2230   2.042       .  S
C2220      C2543   1.565       .  S
O2222     Mn2225   2.041       .  S
C2227      C2443   1.475       .  S
O2229      C2234   1.233       .  A
Mn2230     O2233   1.994       .  S
O2232      C2234   1.253       .  S
C2234      C2373   1.527       .  S
O2235      C2262   1.278       .  A
O2235     Mn2261   2.107       .  S
C2236      O2269   1.246       .  A
C2236      O2266   1.279   1_565  A
C2236      C2520   1.495       .  S
O2237     Mn2244   2.089   1_545  S
O2237     Mn2255   2.101       .  S
O2237     Mn2259   2.088       .  S
O2237     Mn2261   2.101       .  S
O2238      C2248   1.291       .  A
O2238     Mn2272   2.211       .  S
O2239      C2262   1.274       .  A
O2239     Mn2255   2.111       .  S
O2240      C2267   1.266       .  A
O2240     Mn2259   2.149       .  S
O2241     Mn2272   1.949       .  S
O2241     Mn2261   1.972       .  S
O2241      C2257   1.207       .  S
C2242      O2245   1.237       .  A
C2242      C2393   1.542       .  S
C2242      O2268   1.269       .  S
O2243     Mn2263   2.144       .  S
O2243     Mn2244   2.085   1_545  S
O2243     Mn3133   2.126   1_545  S
O2243     Mn2259   2.256       .  S
Mn2244     O3129   1.999       .  S
Mn2244     O3105   2.176       .  S
Mn2244     O3132   2.000       .  S
Mn2244     O2250   2.194   1_565  S
O2245     Mn2259   2.033       .  S
O2246      C2248   1.254       .  A
O2246     Mn2253   2.031       .  S
C2247      O2273   1.247       .  A
C2247      C2340   1.455       .  S
C2247      O3116   1.241       .  S
C2248      C2333   1.489       .  S
O2249      C2274   1.263       .  A
O2249     Mn3100   2.176       .  S
O2250     Mn2253   2.114       .  S
O2250     Mn2272   2.109       .  S
O2250     Mn2259   2.116       .  S
O2251     Mn3111   2.019       .  S
O2251     Mn2277   2.081       .  S
O2251      C2274   1.225       .  S
C2252      O2278   1.241       .  A
C2252      O2254   1.291       .  A
C2252      C2513   1.491       .  S
Mn2253     O2266   2.186       .  S
Mn2253     O2268   2.067       .  S
Mn2253     O2260   1.966   1_545  S
O2254     Mn3133   2.225   1_545  S
Mn2255     O3127   2.143   1_545  S
Mn2255     O3107   2.019   1_545  S
Mn2255     O2265   1.946       .  S
O2256      C2258   1.251       .  A
O2256     Mn2261   2.036   1_565  S
C2257      O2275   1.281       .  A
C2257      C2370   1.520       .  S
C2258      O3127   1.274       .  A
C2258      C3346   1.472       .  S
Mn2259     O2275   2.217       .  S
O2260     Mn2263   1.953   1_565  S
O2260      C3103   1.241       .  S
Mn2261     O2279   1.946   1_545  S
C2262      C2360   1.476       .  S
Mn2263     O3126   2.084   1_545  S
Mn2263     O2278   1.968       .  S
Mn2263     O2268   1.963       .  S
C2264      O2270   1.270       .  A
C2264      O2280   1.293       .  A
C2264      C2403   1.497       .  S
O2265     Mn3133   1.992   1_545  S
O2265      C2267   1.211       .  S
C2267      C2500   1.464       .  S
O2269     Mn2272   2.034   1_565  S
O2270     Mn3119   2.085       .  S
O2271      C3114   1.274       .  A
O2271     Mn3111   2.143       .  S
Mn2272     O2279   1.965   1_545  S
O2273     Mn3100   1.999       .  S
C2274      C2350   1.547       .  S
O2276      C3137   1.230       .  A
O2276     Mn3100   2.000       .  S
Mn2277     O3110   2.224       .  S
Mn2277     O2280   2.148       .  S
Mn2277     O3099   2.126       .  S
Mn2277     O3121   1.992       .  S
O2279      C2281   1.221       .  S
C2281      O3132   1.230       .  A
C2281      C3236   1.453       .  S
O2282      C2309   1.270       .  A
O2282     Mn2308   2.122       .  S
C2283      O2316   1.257       .  A
C2283      O2313   1.283   1_554  A
C2283      C2480   1.479       .  S
O2284     Mn2306   2.148   1_554  S
O2284     Mn2308   2.105   1_554  S
O2285      C2295   1.286       .  A
O2285     Mn2319   2.177       .  S
O2286      C2309   1.256       .  A
O2287      C2314   1.255       .  A
O2287     Mn2306   2.258       .  S
O2288     Mn2319   1.882       .  S
O2288     Mn2308   1.887       .  S
O2288      C2304   1.198       .  S
C2289      O2292   1.250       .  A
C2289      C2353   1.554       .  S
C2289      O2315   1.275       .  S
O2290     Mn2310   2.136       .  S
O2290     Mn2291   2.086       .  S
O2290     Mn2324   2.028       .  S
Mn2291     O2320   2.081       .  S
Mn2291     O2296   2.146       .  S
Mn2291     O2323   2.014       .  S
O2292     Mn2306   2.030       .  S
O2293      C2295   1.260       .  A
O2293     Mn2300   2.024       .  S
C2294      O2320   1.257       .  A
C2294      C2420   1.491       .  S
C2294      O2307   1.232       .  S
C2295      C2430   1.473       .  S
O2296      C2321   1.260       .  A
O2297     Mn2300   2.109       .  S
O2297     Mn2319   2.103       .  S
O2297     Mn2306   2.143       .  S
O2298     Mn2302   1.961       .  S
O2298     Mn2324   2.019       .  S
O2298      C2321   1.208       .  S
C2299      O2301   1.300       .  A
Mn2300     O2313   2.148       .  S
Mn2300     O2315   2.085       .  S
Mn2302     O2318   2.148       .  S
O2303     Mn2308   2.021   1_554  S
C2304      O2322   1.267       .  A
C2304      C2363   1.477       .  S
C2305      O2318   1.273       .  A
C2305      C2460   1.474       .  S
Mn2306     O2322   2.188       .  S
O2307     Mn2310   1.963       .  S
Mn2308     O2326   1.991   1_556  S
C2309      C2440   1.483       .  S
Mn2310     O2317   2.126       .  S
Mn2310     O2325   2.009       .  S
C2311      O2317   1.284       .  A
C2311      O2327   1.259       .  A
C2311      C2343   1.448       .  S
O2312      C2314   1.172       .  S
C2314      C2453   1.490       .  S
O2316     Mn2319   2.038   1_554  S
Mn2319     O2326   2.056   1_556  S
C2321      C2413   1.490       .  S
O2323      C2328   1.238       .  A
Mn2324     O2327   1.995       .  S
C2328      C2330   1.491       .  S
C2329      C2330   1.419       .  A
C2329      C2334   1.404       .  A
C2329      F2336   1.356       .  S
C2330      C2331   1.396       .  A
C2331      C2332   1.407       .  A
C2331      F2338   1.358       .  S
C2332      C2333   1.422       .  A
C2332      F2337   1.351       .  S
C2333      C2334   1.398       .  A
C2334      F2335   1.356       .  S
C2339      C2340   1.422       .  A
C2339      C2344   1.398       .  A
C2339      F2346   1.358       .  S
C2340      C2341   1.388       .  A
C2341      C2342   1.374       .  A
C2341      F2348   1.357       .  S
C2342      C2343   1.412       .  A
C2342      F2347   1.360       .  S
C2343      C2344   1.391       .  A
C2344      F2345   1.357       .  S
C2349      C2350   1.426       .  A
C2349      C2354   1.445       .  A
C2349      F2356   1.356       .  S
C2350      C2351   1.403       .  A
C2351      C2352   1.412       .  A
C2351      F2358   1.351       .  S
C2352      C2353   1.417       .  A
C2352      F2357   1.344       .  S
C2353      C2354   1.416       .  A
C2354      F2355   1.348       .  S
C2359      C2360   1.392       .  A
C2359      C2364   1.387       .  A
C2359      F2366   1.358       .  S
C2360      C2361   1.415       .  A
C2361      C2362   1.404       .  A
C2361      F2368   1.351       .  S
C2362      C2363   1.397       .  A
C2362      F2367   1.356       .  S
C2363      C2364   1.421       .  A
C2364      F2365   1.354       .  S
C2369      C2370   1.430       .  A
C2369      C2374   1.422       .  A
C2369      F2376   1.358       .  S
C2370      C2371   1.397       .  A
C2371      C2372   1.412       .  A
C2371      F2378   1.357       .  S
C2372      C2373   1.430       .  A
C2372      F2377   1.356       .  S
C2373      C2374   1.404       .  A
C2374      F2375   1.357       .  S
C2379      C2380   1.394       .  A
C2379      C2384   1.381       .  A
C2379      F2386   1.358       .  S
C2380      C3137   1.453       .  S
C2380      C2381   1.414       .  A
C2381      C2382   1.388       .  A
C2381      F2388   1.359       .  S
C2382      C2383   1.393       .  A
C2382      F2387   1.358       .  S
C2383      C2384   1.403       .  A
C2384      F2385   1.359       .  S
C2389      C2390   1.421       .  A
C2389      C2394   1.439       .  A
C2389      F2396   1.357       .  S
C2390      C2391   1.393       .  A
C2391      C2392   1.402       .  A
C2391      F2398   1.358       .  S
C2392      C2393   1.411       .  A
C2392      F2397   1.336       .  S
C2393      C2394   1.421       .  A
C2394      F2395   1.357       .  S
C2399      C2400   1.399       .  A
C2399      C2404   1.396       .  A
C2399      F2406   1.330       .  S
C2400      C2401   1.402       .  A
C2401      C2402   1.412       .  A
C2401      F2408   1.357       .  S
C2402      C2403   1.421       .  A
C2402      F2407   1.351       .  S
C2403      C2404   1.392       .  A
C2404      F2405   1.355       .  S
C2409      C2410   1.426       .  A
C2409      C2414   1.403       .  A
C2409      F2416   1.357       .  S
C2410      C2411   1.385       .  A
C2411      C2412   1.385       .  A
C2411      F2418   1.357       .  S
C2412      C2413   1.416       .  A
C2412      F2417   1.339       .  S
C2413      C2414   1.397       .  A
C2414      F2415   1.357       .  S
C2419      C2420   1.403       .  A
C2419      C2424   1.396       .  A
C2419      F2426   1.358       .  S
C2420      C2421   1.417       .  A
C2421      C2422   1.410       .  A
C2421      F2428   1.357       .  S
C2422      C2423   1.398       .  A
C2422      F2427   1.352       .  S
C2423      C2424   1.414       .  A
C2424      F2425   1.359       .  S
C2429      C2430   1.410       .  A
C2429      C2434   1.393       .  A
C2429      F2436   1.359       .  S
C2430      C2431   1.402       .  A
C2431      C2432   1.402       .  A
C2431      F2438   1.355       .  S
C2432      C2433   1.409       .  A
C2432      F2437   1.358       .  S
C2433      C2434   1.401       .  A
C2434      F2435   1.355       .  S
C2439      C2440   1.413       .  A
C2439      C2444   1.394       .  A
C2439      F2446   1.357       .  S
C2440      C2441   1.405       .  A
C2441      C2442   1.393       .  A
C2441      F2448   1.348       .  S
C2442      C2443   1.408       .  A
C2442      F2447   1.359       .  S
C2443      C2444   1.406       .  A
C2444      F2445   1.359       .  S
C2449      C2454   1.424       .  A
C2449      F2456   1.350       .  S
C2450      C2451   1.357       .  A
C2451      C2452   1.394       .  A
C2451      F2458   1.352       .  S
C2452      F2457   1.344       .  S
C2453      C2454   1.416       .  A
C2454      F2455   1.352       .  S
C2459      C2464   1.410       .  A
C2459      F2466   1.357       .  S
C2460      C2461   1.401       .  A
C2461      C2462   1.384       .  A
C2461      F2468   1.348       .  S
C2462      C2463   1.408       .  A
C2462      F2467   1.359       .  S
C2464      F2465   1.357       .  S
C2469      C2470   1.472       .  A
C2469      C2474   1.434       .  A
C2469      F2476   1.350       .  S
C2471      F2478   1.347   1_554  S
C2472      C2473   1.416       .  A
C2473      C2474   1.416       .  A
C2474      F2475   1.357       .  S
C2479      C2484   1.404       .  A
C2479      F2486   1.358       .  S
C2480      C2481   1.399   1_554  A
C2481      C2482   1.386       .  A
C2481      F2488   1.359       .  S
C2482      C2483   1.411       .  A
C2482      F2487   1.353       .  S
C2484      F2485   1.358       .  S
C2489      C3346   1.404   1_545  A
C2489      C2494   1.403       .  A
C2489      F2496   1.357       .  S
C2490      C3114   1.471       .  S
C2490      C3345   1.404       .  A
C2490      C2491   1.407       .  A
C2491      C2492   1.392       .  A
C2491      F2498   1.359       .  S
C2492      C2493   1.408       .  A
C2492      F2497   1.358       .  S
C2493      C3350   1.411       .  A
C2494      C3349   1.411   1_545  A
C2494      F2495   1.358       .  S
C2499      C2500   1.406       .  A
C2499      C2504   1.387       .  A
C2499      F2506   1.355       .  S
C2500      C2501   1.390       .  A
C2501      C2502   1.404       .  A
C2501      F2508   1.351       .  S
C2502      C2503   1.410       .  A
C2502      F2507   1.358       .  S
C2503      C2504   1.405       .  A
C2504      F3361   1.359       .  S
F2505      C3360   1.359       .  S
C2509      C2510   1.409       .  A
C2509      C2514   1.413       .  A
C2509      F2516   1.357       .  S
C2510      C2511   1.421       .  A
C2511      C2512   1.410       .  A
C2511      F3374   1.358   1_545  S
C2512      C2513   1.403       .  A
C2512      F3373   1.353   1_545  S
C2513      C2514   1.417       .  A
C2514      F2515   1.349       .  S
F2517      C3368   1.353       .  S
F2518      C3367   1.358       .  S
C2519      C2520   1.397       .  A
C2519      C2524   1.403       .  A
C2519      F2526   1.357       .  S
C2520      C2521   1.420       .  A
C2521      C2522   1.400       .  A
C2521      F2528   1.350       .  S
C2522      C2523   1.394       .  A
C2522      F2527   1.357       .  S
C2523      C2524   1.421       .  A
C2524      F2525   1.354       .  S
C2529      C2530   1.400       .  A
C2529      C2534   1.407       .  A
C2529      F2536   1.355       .  S
C2530      C2531   1.417       .  A
C2531      C2532   1.386       .  A
C2532      C2533   1.387       .  A
C2532      F2537   1.359       .  S
C2533      C2534   1.412       .  A
C2534      F2535   1.353       .  S
C2539      C2544   1.422       .  A
C2539      F2546   1.358   1_455  S
C2540      C2541   1.423       .  A
C2541      C2542   1.451       .  A
C2541      F2548   1.354       .  S
C2542      C2543   1.423       .  A
C2542      F2547   1.354       .  S
C2544      F2545   1.357   1_455  S
C2549      C2554   1.437       .  A
C2549      F2556   1.357       .  S
C2550      C2551   1.516       .  A
C2551      C2552   1.423       .  A
C2551      F2558   1.350       .  S
C2552      C2553   1.417       .  A
C2552      F2557   1.351       .  S
C2554      F2555   1.337       .  S
C2559      C2560   1.411       .  A
C2559      C2564   1.399       .  A
C2559      F2566   1.358       .  S
C2561      C2562   1.378       .  A
C2561      F2568   1.360       .  S
C2562      F2567   1.341       .  S
C2563      C2564   1.406       .  A
C2564      F2565   1.358       .  S
O2569      C2596   1.252       .  A
O2569     Mn2595   2.006       .  S
C2570      C2991   1.484       .  S
O2571     Mn2595   2.018       .  S
O2572      C2582   1.278       .  A
O2572     Mn2606   2.201       .  S
O2574      C2601   1.282       .  A
O2574     Mn2593   2.248       .  S
O2575     Mn3034   1.898       .  S
O2575     Mn2595   1.934       .  S
O2575      C2591   1.195       .  S
C2576      O2579   1.229       .  A
C2576      C2901   1.519       .  S
C2576      O2602   1.271       .  S
O2577     Mn2597   2.071   1_556  S
O2577     Mn3039   2.160       .  S
Mn2578     O2607   2.029       .  S
Mn2578     O3011   2.092   1_554  S
Mn2578     O3038   2.056       .  S
O2579     Mn3021   1.930   1_554  S
O2580      C2582   1.248       .  A
O2580     Mn2587   2.030       .  S
C2581      O2607   1.254       .  A
C2581      C2951   1.488       .  S
C2582      C2938   1.514       .  S
O2583     Mn3006   2.094       .  S
O2584     Mn2587   2.229       .  S
O2584     Mn2606   2.272       .  S
O2585     Mn2589   1.922   1_565  S
O2585     Mn2611   1.986       .  S
O2585      C2608   1.225       .  S
C2586      O2612   1.209   1_655  A
C2586      O3016   1.284   1_554  A
Mn2587     O2600   2.109       .  S
O2588      C3014   1.283       .  A
O2588     Mn2611   2.298       .  S
Mn2589     O2599   2.065   1_545  S
O2590      C2592   1.264       .  A
C2591      O2609   1.248       .  A
C2591      C2911   1.469       .  S
C2592      O2605   1.285       .  A
C2592      C2958   1.482       .  S
Mn2593     O3007   1.930       .  S
O2594     Mn2597   1.954       .  S
Mn2595     O2613   1.988       .  S
C2596      C2931   1.447       .  S
Mn2597     O2604   2.221       .  S
Mn2597     O2612   2.012   1_655  S
C2598      O2604   1.290       .  A
C2598      O3042   1.238   1_554  A
C2598      C2878   1.484       .  S
O2599     Mn2611   2.031       .  S
C2601      C2968   1.563       .  S
O2603     Mn2606   1.972       .  S
Mn2606     O3003   1.898       .  S
Mn2606     O3041   1.988       .  S
C2608      C2921   1.481       .  S
O2610      C2615   1.252       .  A
O2610     Mn3006   2.054       .  S
Mn2611     O2614   1.968       .  S
Mn2611     O3005   2.160       .  S
O2613     Mn3034   1.989       .  S
O2614      C3026   1.238       .  A
C2615      C3319   1.491       .  S
O2616      C2643   1.270       .  A
O2616     Mn2642   2.064       .  S
C2617      C2988   1.459       .  S
O2618     Mn2625   2.094       .  S
O2618     Mn2636   2.098       .  S
O2619      C2629   1.288       .  A
O2619     Mn2653   2.212       .  S
O2620      C2643   1.287       .  A
O2621      C2648   1.285       .  A
O2621     Mn2640   2.312       .  S
O2622     Mn2653   1.968       .  S
O2622     Mn2642   2.031       .  S
O2622      C2638   1.243       .  S
C2623      O2626   1.241       .  A
C2623      C2828   1.493       .  S
C2623      O2649   1.245       .  S
O2624     Mn2644   1.948       .  S
O2624     Mn2625   1.973       .  S
O2624     Mn2658   1.969       .  S
Mn2625     O2654   2.004       .  S
Mn2625     O2630   2.079       .  S
Mn2625     O2657   1.996       .  S
O2626     Mn2640   2.040       .  S
O2627      C2629   1.251       .  A
O2627     Mn2634   2.021       .  S
C2628      O2654   1.246       .  A
C2628      C2838   1.479       .  S
C2628      O2641   1.248       .  S
C2629      C2851   1.486       .  S
O2630      C2655   1.254       .  A
O2631     Mn2634   2.113       .  S
O2631     Mn2653   2.105       .  S
O2631     Mn2640   2.165       .  S
O2632     Mn2636   1.954       .  S
O2632     Mn2658   2.085       .  S
O2632      C2655   1.226       .  S
C2633      C2978   1.766       .  S
Mn2634     O2647   2.118       .  S
Mn2634     O2649   2.018       .  S
O2635     Mn2658   2.480       .  S
Mn2636     O2652   2.118       .  S
Mn2636     O2646   1.959       .  S
O2637      C2639   1.270       .  A
C2638      O2656   1.274       .  A
C2638      C2818   1.524       .  S
C2639      O2652   1.279       .  A
C2639      C2961   1.470       .  S
Mn2640     O2656   2.143       .  S
O2641     Mn2644   1.973       .  S
C2643      C2861   1.471       .  S
Mn2644     O2651   2.102       .  S
Mn2644     O2659   1.841       .  S
C2645      O2651   1.251       .  A
C2645      O2661   1.242       .  A
C2645      C2811   1.425       .  S
O2646     Mn2658   2.041       .  S
C2648      C2971   1.565       .  S
O2650     Mn2653   2.041       .  S
C2655      C2871   1.475       .  S
O2657      C2662   1.233       .  A
Mn2658     O2661   1.994       .  S
O2660      C2662   1.253       .  S
C2662      C2801   1.527       .  S
O2663      C2690   1.278       .  A
O2663     Mn2689   2.108       .  S
C2664      O2697   1.247       .  A
C2664      O2694   1.279       .  A
C2664      C2948   1.493       .  S
O2665     Mn2672   2.089       .  S
O2665     Mn2683   2.101       .  S
O2665     Mn2687   2.088       .  S
O2665     Mn2689   2.101       .  S
O2666      C2676   1.290       .  A
O2666     Mn2700   2.210       .  S
O2667      C2690   1.274       .  A
O2667     Mn2683   2.111       .  S
O2668      C2695   1.266       .  A
O2668     Mn2687   2.148       .  S
O2669     Mn2700   1.949       .  S
O2669     Mn2689   1.972       .  S
O2669      C2685   1.207       .  S
C2670      O2673   1.237       .  A
C2670      C2821   1.542       .  S
C2670      O2696   1.269       .  S
O2671     Mn2691   2.144       .  S
O2671     Mn2672   2.086       .  S
O2671     Mn2687   2.256       .  S
Mn2672     O2678   2.195       .  S
O2673     Mn2687   2.033       .  S
O2674      C2676   1.255       .  A
O2674     Mn2681   2.032       .  S
C2675      O2701   1.247       .  A
C2675      C2768   1.455       .  S
C2676      C2761   1.489       .  S
O2677      C2702   1.263       .  A
O2678     Mn2681   2.115       .  S
O2678     Mn2700   2.108       .  S
O2678     Mn2687   2.116       .  S
O2679     Mn2705   2.082       .  S
O2679      C2702   1.225       .  S
C2680      O2706   1.241       .  A
C2680      O2682   1.291       .  A
C2680      C2941   1.490       .  S
Mn2681     O2694   2.182       .  S
Mn2681     O2696   2.066       .  S
Mn2681     O2688   1.966       .  S
Mn2683     O2693   1.947       .  S
O2684      C2686   1.251       .  A
O2684     Mn2689   2.036       .  S
C2685      O2703   1.281       .  A
C2685      C2798   1.520       .  S
Mn2687     O2703   2.218       .  S
O2688     Mn2691   1.953       .  S
Mn2689     O2707   1.947       .  S
C2690      C2788   1.476       .  S
Mn2691     O2706   1.967       .  S
Mn2691     O2696   1.963       .  S
C2692      O2698   1.270       .  A
C2692      O2708   1.293       .  A
C2692      C2831   1.497       .  S
O2693      C2695   1.211       .  S
C2695      C2928   1.464       .  S
O2697     Mn2700   2.035       .  S
Mn2700     O2707   1.964       .  S
C2702      C2778   1.547       .  S
Mn2705     O2708   2.150       .  S
O2707      C2709   1.221       .  S
O2710      C2737   1.270       .  A
O2710     Mn2736   2.122       .  S
C2711      O2744   1.257       .  A
C2711      O2741   1.283       .  A
C2711      C2908   1.479       .  S
O2712     Mn3147   2.163       .  S
O2712     Mn3158   2.041       .  S
O2712     Mn2734   2.148       .  S
O2712     Mn2736   2.106       .  S
O2713      C2723   1.286       .  A
O2713     Mn2747   2.177       .  S
O2714      C2737   1.256       .  A
O2714     Mn3158   2.064       .  S
O2715      C2742   1.256       .  A
O2715     Mn2734   2.259       .  S
O2716     Mn2747   1.882       .  S
O2716     Mn2736   1.887       .  S
O2716      C2732   1.198       .  S
C2717      O2720   1.250       .  A
C2717      C2781   1.554       .  S
C2717      O2743   1.275       .  S
O2718     Mn2738   2.136       .  S
O2718     Mn2719   2.087       .  S
O2718     Mn2752   2.030       .  S
O2718     Mn3162   2.231   1_554  S
Mn2719     O2748   2.081       .  S
Mn2719     O2724   2.146       .  S
Mn2719     O2751   2.014       .  S
Mn2719     O3140   2.163       .  S
Mn2719     O3153   2.127   1_554  S
O2720     Mn2734   2.029       .  S
O2721      C2723   1.260       .  A
O2721     Mn2728   2.023       .  S
C2722      O2748   1.257       .  A
C2722      C2848   1.492       .  S
C2722      O2735   1.232       .  S
C2723      C2858   1.473       .  S
O2724      C2749   1.260       .  A
O2725     Mn3147   2.127       .  S
O2725     Mn2728   2.108       .  S
O2725     Mn2747   2.103       .  S
O2725     Mn2734   2.144       .  S
O2726     Mn2730   1.960       .  S
O2726     Mn2752   2.018       .  S
O2726      C2749   1.208       .  S
C2727      O3181   1.210       .  A
C2727      O2729   1.300       .  A
C2727      C3326   1.700       .  S
Mn2728     O2741   2.149       .  S
Mn2728     O2743   2.085       .  S
Mn2728     O3163   1.926       .  S
O2729     Mn3180   2.204       .  S
Mn2730     O3142   2.064   1_554  S
Mn2730     O2746   2.146       .  S
Mn2730     O3140   2.041       .  S
Mn2730     O3168   1.919   1_554  S
O2731      C3161   1.259       .  A
O2731     Mn2736   2.020       .  S
C2732      O2750   1.267       .  A
C2732      C2791   1.477       .  S
C2733      O3159   1.259       .  A
C2733      O2746   1.273       .  A
C2733      C2888   1.474       .  S
Mn2734     O2750   2.189       .  S
Mn2734     O3146   2.231       .  S
O2735     Mn3156   1.926   1_554  S
O2735     Mn2738   1.965       .  S
Mn2736     O2754   1.991       .  S
C2737      C2868   1.483       .  S
Mn2738     O2745   2.125       .  S
Mn2738     O2753   2.009       .  S
Mn2738     O3171   2.047   1_554  S
C2739      O2745   1.284       .  A
C2739      O2755   1.259       .  A
C2739      C2771   1.448       .  S
O2740     Mn3158   1.919       .  S
O2740     Mn3180   1.867       .  S
O2740      C2742   1.172       .  S
C2742      C2881   1.490       .  S
O2743     Mn3166   2.047       .  S
O2744     Mn2747   2.038       .  S
Mn2747     O2754   2.056       .  S
C2749      C2841   1.489       .  S
O2751      C2756   1.238       .  A
Mn2752     O3157   2.204       .  S
Mn2752     O2755   1.995       .  S
Mn2752     O3168   1.867   1_554  S
O2753      C3155   1.210       .  A
O2754      C3184   1.239       .  S
C2756      C2758   1.491       .  S
C2756      O3182   1.239       .  S
C2757      C2758   1.419       .  A
C2757      C2762   1.403       .  A
C2757      F2764   1.355       .  S
C2758      C2759   1.396       .  A
C2759      C2760   1.406       .  A
C2759      F2766   1.358       .  S
C2760      C2761   1.422       .  A
C2760      F2765   1.351       .  S
C2761      C2762   1.398       .  A
C2762      F2763   1.356       .  S
C2767      C2768   1.422       .  A
C2767      C2772   1.398       .  A
C2767      F2774   1.358       .  S
C2768      C2769   1.388       .  A
C2769      C2770   1.373       .  A
C2769      F2776   1.356       .  S
C2770      C2771   1.412       .  A
C2770      F2775   1.360       .  S
C2771      C2772   1.391       .  A
C2772      F2773   1.357       .  S
C2777      C2778   1.426       .  A
C2777      C2782   1.445       .  A
C2777      F2784   1.356       .  S
C2778      C2779   1.403       .  A
C2779      C2780   1.412       .  A
C2779      F2786   1.351       .  S
C2780      C2781   1.417       .  A
C2780      F2785   1.345       .  S
C2781      C2782   1.416       .  A
C2782      F2783   1.348       .  S
C2787      C2788   1.392       .  A
C2787      C2792   1.387       .  A
C2787      F2794   1.358       .  S
C2788      C2789   1.415       .  A
C2789      C2790   1.404       .  A
C2789      F2796   1.351       .  S
C2790      C2791   1.397       .  A
C2790      F2795   1.356       .  S
C2791      C2792   1.421       .  A
C2792      F2793   1.354       .  S
C2797      C2798   1.430       .  A
C2797      C2802   1.422       .  A
C2797      F2804   1.358       .  S
C2798      C2799   1.398       .  A
C2799      C2800   1.412       .  A
C2799      F2806   1.357       .  S
C2800      C2801   1.430       .  A
C2800      F2805   1.356       .  S
C2801      C2802   1.404       .  A
C2802      F2803   1.357       .  S
C2807      C2808   1.394       .  A
C2807      C2812   1.381       .  A
C2807      F2814   1.358       .  S
C2808      C2809   1.414       .  A
C2809      C2810   1.388       .  A
C2809      F2816   1.359       .  S
C2810      C2811   1.393       .  A
C2810      F2815   1.358       .  S
C2811      C2812   1.403       .  A
C2812      F2813   1.359       .  S
C2817      C2818   1.421       .  A
C2817      C2822   1.439       .  A
C2817      F2824   1.357       .  S
C2818      C2819   1.393       .  A
C2819      C2820   1.402       .  A
C2819      F2826   1.358       .  S
C2820      C2821   1.411       .  A
C2820      F2825   1.336       .  S
C2821      C2822   1.421       .  A
C2822      F2823   1.357       .  S
C2827      C2828   1.399       .  A
C2827      C2832   1.396       .  A
C2827      F2834   1.330       .  S
C2828      C2829   1.402       .  A
C2829      C2830   1.412       .  A
C2829      F2836   1.357       .  S
C2830      C2831   1.422       .  A
C2830      F2835   1.352       .  S
C2831      C2832   1.392       .  A
C2832      F2833   1.355       .  S
C2837      C2838   1.426       .  A
C2837      C2842   1.403       .  A
C2837      F2844   1.357       .  S
C2838      C2839   1.384       .  A
C2839      C2840   1.385       .  A
C2839      F2846   1.357       .  S
C2840      C2841   1.416       .  A
C2840      F2845   1.339       .  S
C2841      C2842   1.396       .  A
C2842      F2843   1.357       .  S
C2847      C2848   1.403       .  A
C2847      C2852   1.396       .  A
C2847      F2854   1.358       .  S
C2848      C2849   1.417       .  A
C2849      C2850   1.410       .  A
C2849      F2856   1.357       .  S
C2850      C2851   1.398       .  A
C2850      F2855   1.352       .  S
C2851      C2852   1.414       .  A
C2852      F2853   1.359       .  S
C2857      C2858   1.410       .  A
C2857      C2862   1.393       .  A
C2857      F2864   1.359       .  S
C2858      C2859   1.402       .  A
C2859      C2860   1.402       .  A
C2859      F2866   1.355       .  S
C2860      C2861   1.409       .  A
C2860      F2865   1.358       .  S
C2861      C2862   1.400       .  A
C2862      F2863   1.355       .  S
C2867      C2868   1.413       .  A
C2867      C2872   1.394       .  A
C2867      F2874   1.357       .  S
C2868      C2869   1.405       .  A
C2869      C2870   1.392       .  A
C2869      F2876   1.348       .  S
C2870      C2871   1.408       .  A
C2870      F2875   1.359       .  S
C2871      C2872   1.406       .  A
C2872      F2873   1.359       .  S
C2877      C3306   1.424       .  A
C2877      C2882   1.424       .  A
C2877      F2884   1.351       .  S
C2878      C3305   1.424   1_554  A
C2878      C2879   1.357       .  A
C2879      C2880   1.394   1_554  A
C2879      F2886   1.352       .  S
C2880      C3309   1.422       .  A
C2880      F2885   1.344   1_556  S
C2881      C3308   1.422       .  A
C2881      C2882   1.417       .  A
C2882      F2883   1.352       .  S
C2887      C3316   1.408       .  A
C2887      C2892   1.410       .  A
C2887      F2894   1.357       .  S
C2888      C3315   1.408       .  A
C2888      C2889   1.400       .  A
C2889      C2890   1.384       .  A
C2889      F2896   1.348       .  S
C2890      C2891   1.408       .  A
C2890      F2895   1.359       .  S
C2891      C3043   1.492       .  S
C2891      C3320   1.416       .  A
C2892      C3319   1.415       .  A
C2892      F2893   1.357       .  S
C2897      C2898   1.470       .  A
C2897      C2902   1.436       .  A
C2897      F2904   1.351       .  S
C2898      C3155   1.700       .  S
C2898      C3327   1.523       .  A
C2899      C3326   1.523       .  A
C2899      C3328   1.397       .  A
C2899      F2906   1.347       .  S
C2900      C3327   1.397       .  A
C2900      C2901   1.415       .  A
C2900      F3333   1.354   1_554  S
C2901      C2902   1.418       .  A
C2902      F2903   1.357       .  S
F2905      C3328   1.354       .  S
C2907      C3336   1.418       .  A
C2907      C2912   1.404       .  A
C2907      F2914   1.358       .  S
C2908      C3335   1.418       .  A
C2908      C2909   1.399       .  A
C2909      C2910   1.386       .  A
C2909      F2916   1.359       .  S
C2910      C2911   1.411       .  A
C2910      F2915   1.353       .  S
C2911      C3340   1.400       .  A
C2912      C3339   1.400   1_554  A
C2912      F2913   1.358       .  S
C2917      C2922   1.403       .  A
C2917      F2924   1.357       .  S
C2918      C2919   1.407       .  A
C2919      C2920   1.392       .  A
C2919      F2926   1.359       .  S
C2920      C2921   1.408       .  A
C2920      F2925   1.358       .  S
C2922      F2923   1.358       .  S
C2927      C2928   1.406       .  A
C2927      C2932   1.386       .  A
C2927      F2934   1.355       .  S
C2928      C2929   1.391       .  A
C2929      C2930   1.405       .  A
C2929      F2936   1.352       .  S
C2930      C2931   1.411       .  A
C2930      F2935   1.358       .  S
C2931      C2932   1.405       .  A
C2937      C2938   1.409       .  A
C2937      C2942   1.413       .  A
C2937      F2944   1.357       .  S
C2938      C2939   1.421       .  A
C2939      C2940   1.410       .  A
C2940      C2941   1.403       .  A
C2941      C2942   1.417       .  A
C2942      F2943   1.349       .  S
C2947      C2948   1.398       .  A
C2947      C2952   1.403       .  A
C2947      F2954   1.357       .  S
C2948      C2949   1.419       .  A
C2949      C2950   1.399       .  A
C2949      F2956   1.350       .  S
C2950      C2951   1.393       .  A
C2950      F2955   1.357       .  S
C2951      C2952   1.421       .  A
C2952      F2953   1.354       .  S
C2957      C2958   1.400       .  A
C2957      C2962   1.407       .  A
C2957      F2964   1.355       .  S
C2958      C2959   1.417       .  A
C2959      C2960   1.386       .  A
C2960      C2961   1.387       .  A
C2960      F2965   1.359       .  S
C2961      C2962   1.412       .  A
C2962      F2963   1.353       .  S
C2967      C2972   1.422       .  A
C2967      F2974   1.358   1_455  S
C2968      C2969   1.424       .  A
C2969      C2970   1.451       .  A
C2969      F2976   1.354       .  S
C2970      C2971   1.423       .  A
C2970      F2975   1.354       .  S
C2972      F2973   1.357   1_455  S
C2977      C2982   1.437       .  A
C2977      F2984   1.357       .  S
C2978      C2979   1.514       .  A
C2979      C2980   1.420       .  A
C2979      F2986   1.350       .  S
C2980      C2981   1.416       .  A
C2980      F2985   1.350       .  S
C2982      F2983   1.336       .  S
C2987      C2988   1.410       .  A
C2987      C2992   1.399       .  A
C2987      F2994   1.358       .  S
C2989      C2990   1.378       .  A
C2989      F2996   1.360       .  S
C2990      F2995   1.341       .  S
C2991      C2992   1.406       .  A
C2992      F2993   1.358       .  S
O2997      C3024   1.253       .  A
O2997     Mn3023   2.007       .  S
C2998      C3419   1.484       .  S
O2999     Mn3023   2.020       .  S
O3000      C3010   1.278       .  A
O3000     Mn3034   2.201       .  S
O3002      C3029   1.282       .  A
O3002     Mn3021   2.248       .  S
O3003     Mn3023   1.934   1_554  S
O3003      C3019   1.195   1_554  S
C3004      O3007   1.229       .  A
C3004      C3329   1.519       .  S
C3004      O3030   1.271       .  S
O3005     Mn3025   2.071       .  S
Mn3006     O3035   2.029       .  S
O3008      C3010   1.248       .  A
O3008     Mn3015   2.029       .  S
C3009      O3035   1.254       .  A
C3009      C3379   1.489       .  S
C3010      C3366   1.514       .  S
O3012     Mn3015   2.229       .  S
O3012     Mn3034   2.273       .  S
O3013     Mn3017   1.922   1_565  S
O3013     Mn3039   1.986       .  S
O3013      C3036   1.225       .  S
C3014      O3040   1.209   1_655  A
Mn3015     O3028   2.108       .  S
O3016     Mn3039   2.299       .  S
Mn3017     O3027   2.065   1_545  S
O3018      C3020   1.264       .  A
C3019      O3037   1.248       .  A
C3019      C3339   1.469       .  S
C3020      O3033   1.285       .  A
C3020      C3386   1.482       .  S
O3022     Mn3025   1.953       .  S
Mn3023     O3041   1.988   1_556  S
C3024      C3359   1.447       .  S
Mn3025     O3032   2.221       .  S
Mn3025     O3040   2.012   1_655  S
C3026      O3032   1.290       .  A
C3026      C3306   1.484       .  S
O3027     Mn3039   2.032       .  S
C3029      C3396   1.563       .  S
O3031     Mn3034   1.972       .  S
C3036      C3349   1.481       .  S
O3038      C3043   1.253       .  A
Mn3039     O3042   1.968       .  S
O3044      C3071   1.270       .  A
O3044     Mn3070   2.064       .  S
C3045      C3416   1.459       .  S
O3046     Mn3053   2.094       .  S
O3046     Mn3064   2.099       .  S
O3047      C3057   1.288       .  A
O3047     Mn3081   2.211       .  S
O3048      C3071   1.287       .  A
O3049      C3076   1.285       .  A
O3049     Mn3068   2.312       .  S
O3050     Mn3081   1.968       .  S
O3050     Mn3070   2.031       .  S
O3050      C3066   1.243       .  S
C3051      O3054   1.241       .  A
C3051      C3256   1.493       .  S
C3051      O3077   1.245       .  S
O3052     Mn3072   1.949       .  S
O3052     Mn3053   1.973       .  S
O3052     Mn3086   1.969       .  S
Mn3053     O3082   2.005       .  S
Mn3053     O3058   2.079       .  S
Mn3053     O3085   1.996       .  S
O3054     Mn3068   2.039       .  S
O3055      C3057   1.251       .  A
O3055     Mn3062   2.021       .  S
C3056      O3082   1.246       .  A
C3056      C3266   1.479       .  S
C3056      O3069   1.248       .  S
C3057      C3279   1.485       .  S
O3058      C3083   1.254       .  A
O3059     Mn3062   2.113       .  S
O3059     Mn3081   2.105       .  S
O3059     Mn3068   2.165       .  S
O3060     Mn3064   1.954       .  S
O3060     Mn3086   2.085       .  S
O3060      C3083   1.226       .  S
C3061      C3406   1.767       .  S
Mn3062     O3075   2.117       .  S
Mn3062     O3077   2.017       .  S
O3063     Mn3086   2.480       .  S
Mn3064     O3080   2.118       .  S
Mn3064     O3074   1.958       .  S
O3065      C3067   1.270       .  A
C3066      O3084   1.274       .  A
C3066      C3246   1.525       .  S
C3067      O3080   1.279       .  A
C3067      C3389   1.470       .  S
Mn3068     O3084   2.143       .  S
O3069     Mn3072   1.973       .  S
C3071      C3289   1.471       .  S
Mn3072     O3079   2.102       .  S
Mn3072     O3087   1.841       .  S
C3073      O3079   1.251       .  A
C3073      O3089   1.242       .  A
C3073      C3239   1.425       .  S
O3074     Mn3086   2.041       .  S
C3076      C3399   1.565       .  S
O3078     Mn3081   2.042       .  S
C3083      C3299   1.475       .  S
O3085      C3090   1.233       .  A
Mn3086     O3089   1.994       .  S
O3088      C3090   1.253       .  S
C3090      C3229   1.527       .  S
O3091      C3118   1.278       .  A
O3091     Mn3117   2.108       .  S
C3092      O3125   1.246       .  A
C3092      O3122   1.279       .  A
C3092      C3376   1.495       .  S
O3093     Mn3100   2.088       .  S
O3093     Mn3111   2.101       .  S
O3093     Mn3115   2.088       .  S
O3093     Mn3117   2.101       .  S
O3094      C3104   1.291       .  A
O3094     Mn3128   2.210       .  S
O3095      C3118   1.274       .  A
O3095     Mn3111   2.111       .  S
O3096      C3123   1.266       .  A
O3096     Mn3115   2.149       .  S
O3097     Mn3128   1.950       .  S
O3097     Mn3117   1.972       .  S
O3097      C3113   1.207       .  S
C3098      O3101   1.237       .  A
C3098      C3249   1.543       .  S
C3098      O3124   1.270       .  S
O3099     Mn3119   2.143       .  S
O3099     Mn3100   2.085       .  S
O3099     Mn3115   2.256       .  S
Mn3100     O3106   2.194       .  S
O3101     Mn3115   2.033       .  S
O3102      C3104   1.254       .  A
O3102     Mn3109   2.031       .  S
C3103      O3129   1.247       .  A
C3103      C3196   1.455       .  S
C3104      C3189   1.489       .  S
O3105      C3130   1.263       .  A
O3106     Mn3109   2.114       .  S
O3106     Mn3128   2.109       .  S
O3106     Mn3115   2.116       .  S
O3107     Mn3133   2.082       .  S
O3107      C3130   1.225       .  S
C3108      O3134   1.241       .  A
C3108      O3110   1.291       .  A
C3108      C3369   1.490       .  S
Mn3109     O3122   2.186       .  S
Mn3109     O3124   2.068       .  S
Mn3109     O3116   1.966       .  S
Mn3111     O3121   1.947       .  S
O3112      C3114   1.250       .  A
O3112     Mn3117   2.035       .  S
C3113      O3131   1.281       .  A
C3113      C3226   1.520       .  S
Mn3115     O3131   2.217       .  S
O3116     Mn3119   1.954       .  S
Mn3117     O3135   1.947       .  S
C3118      C3216   1.476       .  S
Mn3119     O3134   1.967       .  S
Mn3119     O3124   1.964       .  S
C3120      O3126   1.270       .  A
C3120      O3136   1.293       .  A
C3120      C3259   1.497       .  S
O3121      C3123   1.211       .  S
C3123      C3356   1.464       .  S
O3125     Mn3128   2.034       .  S
Mn3128     O3135   1.965       .  S
C3130      C3206   1.546       .  S
Mn3133     O3136   2.149       .  S
O3135      C3137   1.221       .  S
O3138      C3165   1.270       .  A
O3138     Mn3164   2.122       .  S
C3139      O3172   1.257       .  A
C3139      O3169   1.283   1_554  A
C3139      C3336   1.479       .  S
O3140     Mn3162   2.148   1_554  S
O3140     Mn3164   2.105   1_554  S
O3141      C3151   1.286       .  A
O3141     Mn3175   2.177       .  S
O3142      C3165   1.256       .  A
O3143      C3170   1.256       .  A
O3143     Mn3162   2.259       .  S
O3144     Mn3175   1.882       .  S
O3144     Mn3164   1.886       .  S
O3144      C3160   1.198       .  S
C3145      O3148   1.250       .  A
C3145      C3209   1.553       .  S
C3145      O3171   1.275       .  S
O3146     Mn3166   2.136       .  S
O3146     Mn3147   2.087       .  S
O3146     Mn3180   2.030       .  S
Mn3147     O3176   2.080       .  S
Mn3147     O3152   2.145       .  S
Mn3147     O3179   2.014       .  S
O3148     Mn3162   2.029       .  S
O3149      C3151   1.260       .  A
O3149     Mn3156   2.023       .  S
C3150      O3176   1.257       .  A
C3150      C3276   1.491       .  S
C3150      O3163   1.232       .  S
C3151      C3286   1.473       .  S
O3152      C3177   1.260       .  A
O3153     Mn3156   2.108       .  S
O3153     Mn3175   2.103       .  S
O3153     Mn3162   2.144       .  S
O3154     Mn3158   1.960       .  S
O3154     Mn3180   2.018       .  S
O3154      C3177   1.208       .  S
C3155      O3157   1.300       .  A
Mn3156     O3169   2.149       .  S
Mn3156     O3171   2.084       .  S
Mn3158     O3174   2.146       .  S
O3159     Mn3164   2.020   1_554  S
C3160      O3178   1.267       .  A
C3160      C3219   1.477       .  S
C3161      O3174   1.273       .  A
C3161      C3316   1.474       .  S
Mn3162     O3178   2.189       .  S
O3163     Mn3166   1.964       .  S
Mn3164     O3182   1.990   1_556  S
C3165      C3296   1.483       .  S
Mn3166     O3173   2.125       .  S
Mn3166     O3181   2.009       .  S
C3167      O3173   1.284       .  A
C3167      O3183   1.259       .  A
C3167      C3199   1.448       .  S
O3168      C3170   1.172       .  S
C3170      C3309   1.490       .  S
O3172     Mn3175   2.038   1_554  S
Mn3175     O3182   2.056   1_556  S
C3177      C3269   1.489       .  S
O3179      C3184   1.238       .  A
Mn3180     O3183   1.995       .  S
C3184      C3186   1.491       .  S
C3185      C3186   1.419       .  A
C3185      C3190   1.403       .  A
C3185      F3192   1.355       .  S
C3186      C3187   1.396       .  A
C3187      C3188   1.407       .  A
C3187      F3194   1.358       .  S
C3188      C3189   1.422       .  A
C3188      F3193   1.351       .  S
C3189      C3190   1.398       .  A
C3190      F3191   1.356       .  S
C3195      C3196   1.422       .  A
C3195      C3200   1.398       .  A
C3195      F3202   1.358       .  S
C3196      C3197   1.388       .  A
C3197      C3198   1.373       .  A
C3197      F3204   1.356       .  S
C3198      C3199   1.412       .  A
C3198      F3203   1.360       .  S
C3199      C3200   1.391       .  A
C3200      F3201   1.357       .  S
C3205      C3206   1.426       .  A
C3205      C3210   1.445       .  A
C3205      F3212   1.356       .  S
C3206      C3207   1.403       .  A
C3207      C3208   1.412       .  A
C3207      F3214   1.351       .  S
C3208      C3209   1.417       .  A
C3208      F3213   1.345       .  S
C3209      C3210   1.416       .  A
C3210      F3211   1.348       .  S
C3215      C3216   1.392       .  A
C3215      C3220   1.387       .  A
C3215      F3222   1.358       .  S
C3216      C3217   1.415       .  A
C3217      C3218   1.404       .  A
C3217      F3224   1.351       .  S
C3218      C3219   1.397       .  A
C3218      F3223   1.356       .  S
C3219      C3220   1.421       .  A
C3220      F3221   1.354       .  S
C3225      C3226   1.430       .  A
C3225      C3230   1.422       .  A
C3225      F3232   1.358       .  S
C3226      C3227   1.397       .  A
C3227      C3228   1.412       .  A
C3227      F3234   1.357       .  S
C3228      C3229   1.430       .  A
C3228      F3233   1.356       .  S
C3229      C3230   1.404       .  A
C3230      F3231   1.357       .  S
C3235      C3236   1.394       .  A
C3235      C3240   1.381       .  A
C3235      F3242   1.358       .  S
C3236      C3237   1.414       .  A
C3237      C3238   1.388       .  A
C3237      F3244   1.359       .  S
C3238      C3239   1.393       .  A
C3238      F3243   1.358       .  S
C3239      C3240   1.403       .  A
C3240      F3241   1.359       .  S
C3245      C3246   1.421       .  A
C3245      C3250   1.439       .  A
C3245      F3252   1.357       .  S
C3246      C3247   1.393       .  A
C3247      C3248   1.403       .  A
C3247      F3254   1.358       .  S
C3248      C3249   1.412       .  A
C3248      F3253   1.336       .  S
C3249      C3250   1.421       .  A
C3250      F3251   1.357       .  S
C3255      C3256   1.399       .  A
C3255      C3260   1.396       .  A
C3255      F3262   1.331       .  S
C3256      C3257   1.402       .  A
C3257      C3258   1.412       .  A
C3257      F3264   1.357       .  S
C3258      C3259   1.422       .  A
C3258      F3263   1.352       .  S
C3259      C3260   1.392       .  A
C3260      F3261   1.355       .  S
C3265      C3266   1.426       .  A
C3265      C3270   1.403       .  A
C3265      F3272   1.357       .  S
C3266      C3267   1.384       .  A
C3267      C3268   1.384       .  A
C3267      F3274   1.357       .  S
C3268      C3269   1.416       .  A
C3268      F3273   1.339       .  S
C3269      C3270   1.396       .  A
C3270      F3271   1.357       .  S
C3275      C3276   1.403       .  A
C3275      C3280   1.396       .  A
C3275      F3282   1.358       .  S
C3276      C3277   1.417       .  A
C3277      C3278   1.410       .  A
C3277      F3284   1.357       .  S
C3278      C3279   1.398       .  A
C3278      F3283   1.352       .  S
C3279      C3280   1.414       .  A
C3280      F3281   1.359       .  S
C3285      C3286   1.410       .  A
C3285      C3290   1.393       .  A
C3285      F3292   1.359       .  S
C3286      C3287   1.402       .  A
C3287      C3288   1.402       .  A
C3287      F3294   1.355       .  S
C3288      C3289   1.409       .  A
C3288      F3293   1.358       .  S
C3289      C3290   1.400       .  A
C3290      F3291   1.355       .  S
C3295      C3296   1.413       .  A
C3295      C3300   1.394       .  A
C3295      F3302   1.357       .  S
C3296      C3297   1.405       .  A
C3297      C3298   1.392       .  A
C3297      F3304   1.348       .  S
C3298      C3299   1.408       .  A
C3298      F3303   1.359       .  S
C3299      C3300   1.406       .  A
C3300      F3301   1.359       .  S
C3305      C3310   1.424       .  A
C3305      F3312   1.351       .  S
C3306      C3307   1.357       .  A
C3307      C3308   1.394       .  A
C3307      F3314   1.352       .  S
C3308      F3313   1.344       .  S
C3309      C3310   1.417       .  A
C3310      F3311   1.352       .  S
C3315      C3320   1.411       .  A
C3315      F3322   1.357       .  S
C3316      C3317   1.400       .  A
C3317      C3318   1.384       .  A
C3317      F3324   1.348       .  S
C3318      C3319   1.408       .  A
C3318      F3323   1.359       .  S
C3320      F3321   1.357       .  S
C3325      C3326   1.470       .  A
C3325      C3330   1.436       .  A
C3325      F3332   1.351       .  S
C3327      F3334   1.347   1_554  S
C3328      C3329   1.416       .  A
C3329      C3330   1.418       .  A
C3330      F3331   1.357       .  S
C3335      C3340   1.404       .  A
C3335      F3342   1.358       .  S
C3336      C3337   1.399   1_554  A
C3337      C3338   1.386       .  A
C3337      F3344   1.359       .  S
C3338      C3339   1.411       .  A
C3338      F3343   1.353       .  S
C3340      F3341   1.358       .  S
C3345      C3350   1.402       .  A
C3345      F3352   1.357       .  S
C3346      C3347   1.407       .  A
C3347      C3348   1.392       .  A
C3347      F3354   1.359       .  S
C3348      C3349   1.408       .  A
C3348      F3353   1.358       .  S
C3350      F3351   1.358       .  S
C3355      C3356   1.406       .  A
C3355      C3360   1.387       .  A
C3355      F3362   1.355       .  S
C3356      C3357   1.391       .  A
C3357      C3358   1.405       .  A
C3357      F3364   1.352       .  S
C3358      C3359   1.411       .  A
C3358      F3363   1.358       .  S
C3359      C3360   1.405       .  A
C3365      C3366   1.408       .  A
C3365      C3370   1.412       .  A
C3365      F3372   1.357       .  S
C3366      C3367   1.422       .  A
C3367      C3368   1.410       .  A
C3368      C3369   1.403       .  A
C3369      C3370   1.417       .  A
C3370      F3371   1.349       .  S
C3375      C3376   1.397       .  A
C3375      C3380   1.403       .  A
C3375      F3382   1.357       .  S
C3376      C3377   1.420       .  A
C3377      C3378   1.401       .  A
C3377      F3384   1.350       .  S
C3378      C3379   1.394       .  A
C3378      F3383   1.357       .  S
C3379      C3380   1.421       .  A
C3380      F3381   1.354       .  S
C3385      C3386   1.401       .  A
C3385      C3390   1.407       .  A
C3385      F3392   1.355       .  S
C3386      C3387   1.417       .  A
C3387      C3388   1.386       .  A
C3388      C3389   1.387       .  A
C3388      F3393   1.359       .  S
C3389      C3390   1.412       .  A
C3390      F3391   1.354       .  S
C3395      C3400   1.422       .  A
C3395      F3402   1.358   1_455  S
C3396      C3397   1.424       .  A
C3397      C3398   1.451       .  A
C3397      F3404   1.354       .  S
C3398      C3399   1.423       .  A
C3398      F3403   1.354       .  S
C3400      F3401   1.357   1_455  S
C3405      C3410   1.437       .  A
C3405      F3412   1.357       .  S
C3406      C3407   1.514       .  A
C3407      C3408   1.420       .  A
C3407      F3414   1.350       .  S
C3408      C3409   1.416       .  A
C3408      F3413   1.351       .  S
C3410      F3411   1.336       .  S
C3415      C3416   1.411       .  A
C3415      C3420   1.399       .  A
C3415      F3422   1.358       .  S
C3417      C3418   1.378       .  A
C3417      F3424   1.360       .  S
C3418      F3423   1.341       .  S
C3419      C3420   1.406       .  A
C3420      F3421   1.358       .  S
