geometry optimzed in LAMMPS
_audit_creation_date              2020-11-30 
_audit_creation_method            'lammps2cif' 
_symmetry_space_group_name_H-M    'P1' 
_symmetry_Int_Tables_number       1 
_symmetry_cell_setting            triclinic 
loop_ 
_symmetry_equiv_pos_as_xyz 
  x,y,z 
_cell_length_a                    27.09309632 
_cell_length_b                    27.028394673479507 
_cell_length_c                    27.034011252758045 
_cell_angle_alpha                 89.8879089812366 
_cell_angle_beta                  90.00730170126629 
_cell_angle_gamma                 90.00720121204446 
loop_ 
_atom_site_label 
_atom_site_type_symbol 
_atom_site_fract_x 
_atom_site_fract_y 
_atom_site_fract_z 
_atom_site_charge 
O1          O  0.00105159  0.08468068  0.13760534    -0.80000
O2          O  0.00448537  0.07994203  0.85679244    -0.81600
O3          O  0.07981225  0.14116497  0.99507089    -0.78600
O4          O  0.91784829  0.14073897  0.99456592    -0.77000
O5          O  0.85781073  0.08121172  0.99643034    -0.78800
O6          O  0.14016049  0.08191463  0.99740539    -0.79700
O7          O  0.00149242  0.14014386  0.91616727    -0.81000
O8          O  0.00057227  0.14326157  0.07630574    -0.81300
Eu9        Eu  0.99933726  0.10005523  0.99708216     2.39200
O10         O  0.95015334  0.04920581  0.94722305    -0.88800
O11         O  0.04984025  0.05167853  0.04899691    -0.92500
C12         C  0.00134303  0.12992272  0.12206874     1.02200
C13         C  0.00366973  0.12562657  0.87086738     1.02100
C14         C  0.12533215  0.12726228  0.99521309     1.02000
C15         C  0.87227150  0.12665086  0.99514702     0.99900
H16         H  0.07128189  0.06933581  0.92763502     0.29600
O17         O  0.05040152  0.04927196  0.94845162    -1.01200
H18         H  0.92834138  0.07235583  0.06858039     0.29600
O19         O  0.94896185  0.05130426  0.04844655    -1.03800
O20         O  0.99866965  0.91621652  0.85954961    -0.81000
O21         O  0.99961860  0.92071350  0.14085094    -0.80500
O22         O  0.14143004  0.99824134  0.91948764    -0.79000
O23         O  0.86060385  0.00519134  0.91629971    -0.82300
O24         O  0.85819801  0.99970024  0.07963788    -0.80200
O25         O  0.14081263  0.00070519  0.08171031    -0.78800
O26         O  0.08022640  0.85960916  0.99931229    -0.80300
O27         O  0.91689707  0.86002176  0.00186617    -0.82300
O28         O  0.14036995  0.91919902  0.99930210    -0.79000
O29         O  0.85742893  0.91996697  0.99667121    -0.81700
O30         O  0.08273875  0.99422353  0.85866910    -0.77400
O31         O  0.08061943  0.00123648  0.14112849    -0.77400
O32         O  0.91839350  0.00109213  0.13916903    -0.77100
O33         O  0.92093386  0.00395343  0.85695660    -0.80600
O34         O  0.99741597  0.85744254  0.92067055    -0.80000
O35         O  0.99793222  0.85987568  0.08197186    -0.78300
Eu36       Eu  0.00111322  0.99848439  0.89842066     2.39800
Eu37       Eu  0.99962532  0.00192753  0.09945808     2.39600
Eu38       Eu  0.10000469  0.00028025  0.00021472     2.38400
Eu39       Eu  0.89928117  0.00053755  0.99826059     2.39900
Eu40       Eu  0.99876668  0.89996873  0.00068877     2.39800
O41         O  0.94907304  0.95130658  0.04990603    -0.92800
O42         O  0.05016753  0.94906193  0.95052131    -0.91600
C43         C  0.99767366  0.87094478  0.87488270     1.02400
C44         C  0.99867034  0.87496107  0.12716766     1.01100
C45         C  0.12792638  0.99524784  0.87381300     1.00500
C46         C  0.87549797  0.00634982  0.87099353     1.02500
C47         C  0.87291557  0.99997396  0.12510297     1.01500
C48         C  0.12624265  0.00060212  0.12720640     1.00300
C49         C  0.12576299  0.87380816  0.99881284     1.00400
C50         C  0.87151950  0.87442115  0.99911964     1.03000
H51         H  0.06976862  0.92993016  0.07134845     0.30300
O52         O  0.04939167  0.95042559  0.05047614    -1.04900
H53         H  0.92871403  0.92893877  0.92824848     0.32400
O54         O  0.94942726  0.94944391  0.94880345    -1.07500
O55         O  0.00236954  0.42169740  0.35531740    -0.80000
O56         O  0.99471806  0.41807230  0.63901721    -0.81600
O57         O  0.08261362  0.36014991  0.49445745    -0.78600
O58         O  0.92001657  0.35908645  0.50015841    -0.77000
O59         O  0.85987395  0.41861536  0.50313659    -0.78800
O60         O  0.14158650  0.42078260  0.49667115    -0.79700
O61         O  0.99841409  0.35909227  0.57838419    -0.81000
O62         O  0.00146477  0.36117610  0.41465272    -0.81300
Eu63       Eu  0.00052290  0.40004779  0.49713528     2.39200
O64         O  0.94979618  0.44970576  0.54743379    -0.88800
O65         O  0.04983234  0.45149839  0.44784826    -0.92500
C66         C  0.00283832  0.37603488  0.36920004     1.02200
C67         C  0.99570602  0.37280288  0.62403805     1.02100
C68         C  0.12796160  0.37507122  0.49487558     1.02000
C69         C  0.87463850  0.37322162  0.50285845     0.99900
H70         H  0.07010388  0.42884792  0.56909225     0.29600
O71         O  0.04963423  0.44974190  0.54873379    -1.01200
H72         H  0.92865414  0.42900697  0.42726789     0.29600
O73         O  0.94902729  0.44996464  0.44777666    -1.03800
O74         O  0.00139852  0.57959997  0.64155546    -0.81000
O75         O  0.99367993  0.58264505  0.35882485    -0.80500
O76         O  0.13979121  0.50104843  0.58049310    -0.79000
O77         O  0.85750201  0.50326956  0.57882470    -0.82300
O78         O  0.85809443  0.49679826  0.41749551    -0.80200
O79         O  0.13953583  0.50257419  0.41751820    -0.78800
O80         O  0.08061476  0.64241174  0.50136568    -0.80300
O81         O  0.91887712  0.64196800  0.49944645    -0.82300
O82         O  0.14022566  0.58242775  0.50129037    -0.79000
O83         O  0.85947156  0.58193754  0.49363501    -0.81700
O84         O  0.07940304  0.49819329  0.63969847    -0.77400
O85         O  0.07953932  0.50262625  0.35780267    -0.77400
O86         O  0.91758628  0.49752193  0.35740371    -0.77100
O87         O  0.91672394  0.50268373  0.63923570    -0.80600
O88         O  0.00106906  0.64006328  0.58214251    -0.80000
O89         O  0.99806570  0.64215921  0.41888570    -0.78300
Eu90       Eu  0.99847516  0.49947078  0.59902606     2.39800
Eu91       Eu  0.99868729  0.50141533  0.39841356     2.39600
Eu92       Eu  0.09947405  0.50118378  0.49902817     2.38400
Eu93       Eu  0.89923466  0.50034446  0.49833488     2.39900
Eu94       Eu  0.99967080  0.60106439  0.50010341     2.39800
O95         O  0.94945081  0.55140108  0.44934611    -0.92800
O96         O  0.04937098  0.55031313  0.55007338    -0.91600
C97         C  0.00192936  0.62524382  0.62755826     1.02400
C98         C  0.99476907  0.62799349  0.37342098     1.01100
C99         C  0.12495754  0.49943580  0.62584280     1.00500
C100        C  0.87138226  0.50423212  0.62447163     1.02500
C101        C  0.87222190  0.49585941  0.37192873     1.01500
C102        C  0.12497637  0.50272206  0.37206328     1.00300
C103        C  0.12606684  0.62800829  0.50158013     1.00400
C104        C  0.87366387  0.62748112  0.49567744     1.03000
H105        H  0.06960733  0.57261119  0.42838107     0.30300
O106        O  0.04928094  0.55160649  0.44879759    -1.04900
H107        H  0.92816250  0.57141963  0.56990403     0.32400
O108        O  0.94865876  0.55065315  0.54939402    -1.07500
O109        O  0.64433911  0.99973300  0.42031770    -0.80000
O110        O  0.36138475  0.99774433  0.41768516    -0.81600
O111        O  0.50461953  0.91801021  0.36023601    -0.78600
O112        O  0.50530367  0.07931310  0.35701857    -0.77000
O113        O  0.50360706  0.13983128  0.41617551    -0.78800
O114        O  0.50368805  0.85872647  0.42075712    -0.79700
O115        O  0.42187886  0.99856693  0.35847914    -0.81000
O116        O  0.58443342  0.99576899  0.36074474    -0.81300
Eu117      Eu  0.50300635  0.99952098  0.40002012     2.39200
O118        O  0.45230401  0.05000459  0.44924689    -0.88800
O119        O  0.55328908  0.95023633  0.45091891    -0.92500
C120        C  0.62986974  0.99690930  0.37492436     1.02200
C121        C  0.37619321  0.99751891  0.37227513     1.02100
C122        C  0.50459848  0.87263913  0.37508258     1.02000
C123        C  0.50484752  0.12494997  0.37083570     0.99900
H124        H  0.43218334  0.92890387  0.42961704     0.29600
O125        O  0.45230205  0.94998834  0.45021052    -1.01200
H126        H  0.57377756  0.07153118  0.42881354     0.29600
O127        O  0.55287648  0.05125752  0.44938189    -1.03800
O128        O  0.36093454  0.99875413  0.58140349    -0.81000
O129        O  0.64225650  0.00869329  0.58219678    -0.80500
O130        O  0.42241764  0.85820863  0.50140695    -0.79000
O131        O  0.42118209  0.14309838  0.49493942    -0.82300
O132        O  0.58234224  0.14249081  0.50245499    -0.80200
O133        O  0.58384500  0.86077529  0.50143117    -0.78800
O134        O  0.50324921  0.92035592  0.64097731    -0.80300
O135        O  0.50022370  0.08290950  0.64049905    -0.82300
O136        O  0.50130883  0.85989577  0.58181020    -0.79000
O137        O  0.50330793  0.14250633  0.58026209    -0.81700
O138        O  0.36214040  0.91758422  0.49958187    -0.77400
O139        O  0.64338946  0.92086384  0.50362143    -0.77400
O140        O  0.64245861  0.08295660  0.50203714    -0.77100
O141        O  0.36184618  0.08267279  0.49472678    -0.80600
O142        O  0.42027569  0.99952211  0.64176712    -0.80000
O143        O  0.58182621  0.01081654  0.64133823    -0.78300
Eu144      Eu  0.40132056  0.00037253  0.49943838     2.39800
Eu145      Eu  0.60237512  0.00162372  0.50096595     2.39600
Eu146      Eu  0.50255336  0.90075997  0.50118054     2.38400
Eu147      Eu  0.50167603  0.10146731  0.49880836     2.39900
Eu148      Eu  0.50107644  0.00191884  0.60039868     2.39800
O149        O  0.55086208  0.05137299  0.54952385    -0.92800
O150        O  0.45159500  0.95108431  0.55039244    -0.91600
C151        C  0.37493851  0.99823551  0.62714058     1.02400
C152        C  0.62738486  0.01238112  0.62737033     1.01100
C153        C  0.37683834  0.87204067  0.50051262     1.00500
C154        C  0.37586695  0.12841230  0.49373684     1.02500
C155        C  0.62779632  0.12831740  0.50334650     1.01500
C156        C  0.62916183  0.87532934  0.50273873     1.00300
C157        C  0.50239963  0.87467295  0.62705382     1.00400
C158        C  0.50201896  0.12830496  0.62590328     1.03000
H159        H  0.57312656  0.93138927  0.57295176     0.30300
O160        O  0.55249099  0.95130634  0.55179640    -1.04900
H161        H  0.42986177  0.07268916  0.56966540     0.32400
O162        O  0.45069812  0.05188938  0.54950088    -1.07500
O163        O  0.41588288  0.36103045  0.99816156    -0.80000
O164        O  0.41910164  0.64249654  0.99880226    -0.81600
O165        O  0.35896234  0.49926672  0.08258983    -0.78600
O166        O  0.35632842  0.50167908  0.91942860    -0.77000
O167        O  0.41634363  0.50288867  0.85977602    -0.78800
O168        O  0.41924265  0.50153747  0.14194865    -0.79700
O169        O  0.35854949  0.58334165  0.99890322    -0.81000
O170        O  0.35595326  0.42075377  0.99924277    -0.81300
Eu171      Eu  0.39806191  0.50144608  0.00037864     2.39200
O172        O  0.44863122  0.55147519  0.95019271    -0.88800
O173        O  0.44852240  0.45114423  0.05023781    -0.92500
C174        C  0.37039610  0.37525167  0.99810733     1.02200
C175        C  0.37352430  0.62869014  0.99827116     1.02100
C176        C  0.37373317  0.50009281  0.12799852     1.02000
C177        C  0.37078694  0.50239268  0.87391574     0.99900
H178        H  0.42849988  0.57244914  0.07134940     0.29600
O179        O  0.44872667  0.55164334  0.05059484    -1.01200
H180        H  0.42709017  0.43081324  0.92866062     0.29600
O181        O  0.44767565  0.45120691  0.94949596    -1.03800
O182        O  0.58177356  0.64007334  0.00095146    -0.81000
O183        O  0.57800943  0.35834235  0.00162020    -0.80500
O184        O  0.50194470  0.58229577  0.14095527    -0.79000
O185        O  0.49774841  0.58257895  0.85960547    -0.82300
O186        O  0.50065737  0.42105746  0.85810530    -0.80200
O187        O  0.49597488  0.42029251  0.14130049    -0.78800
O188        O  0.64046502  0.49773381  0.07898544    -0.80300
O189        O  0.63895829  0.50305489  0.91686193    -0.82300
O190        O  0.58137418  0.49846685  0.13955356    -0.79000
O191        O  0.57906246  0.50541949  0.85717452    -0.81700
O192        O  0.50130309  0.64207903  0.08089150    -0.77400
O193        O  0.49528027  0.36043290  0.08144357    -0.77400
O194        O  0.49965143  0.36061790  0.91759633    -0.77100
O195        O  0.49970794  0.64263375  0.91917160    -0.80600
O196        O  0.64092030  0.57954440  0.00195733    -0.80000
O197        O  0.63849606  0.41739676  0.99772361    -0.78300
Eu198      Eu  0.49965420  0.60107981  0.00006876     2.39800
Eu199      Eu  0.49759770  0.40047651  0.99954428     2.39600
Eu200      Eu  0.49949328  0.50104041  0.10006359     2.38400
Eu201      Eu  0.49825455  0.50143394  0.89945984     2.39900
Eu202      Eu  0.59890024  0.49933561  0.99858606     2.39800
O203        O  0.54818430  0.44976289  0.94857240    -0.92800
O204        O  0.54999118  0.55028290  0.04942560    -0.91600
C205        C  0.62705875  0.62519203  0.00190490     1.02400
C206        C  0.62363065  0.37205506  0.00001824     1.01100
C207        C  0.50219451  0.62782757  0.12644241     1.00500
C208        C  0.49882442  0.62804738  0.87374959     1.02500
C209        C  0.50076113  0.37544411  0.87213599     1.01500
C210        C  0.49492343  0.37481203  0.12697815     1.00300
C211        C  0.62663691  0.49740863  0.12462296     1.00400
C212        C  0.62462634  0.50585717  0.87137061     1.03000
H213        H  0.56875040  0.42900256  0.07008329     0.30300
O214        O  0.54850073  0.45000109  0.04952628    -1.04900
H215        H  0.56957162  0.57174969  0.92906860     0.32400
O216        O  0.54904368  0.55088435  0.94944013    -1.07500
C217        C  0.50006009  0.23455882  0.29731048     0.20400
C218        C  0.49494818  0.28534812  0.28797900    -0.39500
C219        C  0.49439173  0.29907248  0.23797180     0.19400
C220        C  0.49861784  0.26478909  0.20022155     0.22000
C221        C  0.50356651  0.21396237  0.20956617    -0.40000
C222        C  0.50404090  0.20022371  0.25958120     0.20800
N223        N  0.50101109  0.21213000  0.34160041    -0.33200
C224        C  0.50518109  0.16311611  0.33207710    -0.10800
C225        C  0.50741506  0.15418894  0.28128617    -0.29600
N226        N  0.49824559  0.28733313  0.15594356    -0.46200
C227        C  0.49400995  0.33634644  0.16552344    -0.05500
C228        C  0.49121090  0.34512511  0.21631761    -0.22800
H229        H  0.49178467  0.31217744  0.31748369     0.19000
H230        H  0.50686844  0.18713750  0.18007622     0.17800
H231        H  0.51026949  0.11882023  0.26278178     0.14000
H232        H  0.48825269  0.38045270  0.23488266     0.13900
H233        H  0.49806724  0.22908272  0.37616958     0.32100
H234        H  0.50171961  0.27047429  0.12137972     0.34800
C235        C  0.50634750  0.79894121  0.26549720     0.20400
C236        C  0.50670229  0.78934968  0.21450723    -0.39500
C237        C  0.50547963  0.73923487  0.20120540     0.19400
C238        C  0.50405834  0.70161523  0.23601350     0.22000
C239        C  0.50371296  0.71122694  0.28697137    -0.40000
C240        C  0.50493773  0.76130512  0.30028039     0.20800
N241        N  0.50671942  0.84335248  0.28768809    -0.33200
C242        C  0.50547981  0.83390041  0.33695725    -0.10800
C243        C  0.50447468  0.78312508  0.34625305    -0.29600
N244        N  0.50284675  0.65717386  0.21390396    -0.46200
C245        C  0.50344159  0.66654054  0.16463029    -0.05500
C246        C  0.50508638  0.71732589  0.15526503    -0.22800
H247        H  0.50765373  0.81871082  0.18723435     0.19000
H248        H  0.50239940  0.68188423  0.31424071     0.17800
H249        H  0.50316288  0.76470189  0.38181553     0.14000
H250        H  0.50578432  0.73569954  0.11965662     0.13900
H251        H  0.50745443  0.87793095  0.27036702     0.32100
H252        H  0.50151475  0.62264421  0.23128149     0.34800
C253        C  0.50158832  0.76522726  0.70116849     0.20400
C254        C  0.49940582  0.71436493  0.71135751    -0.39500
C255        C  0.49986534  0.70156166  0.76164379     0.19400
C256        C  0.50246311  0.73665906  0.79881890     0.22000
C257        C  0.50458205  0.78740487  0.78859749    -0.40000
C258        C  0.50396450  0.80022671  0.73842751     0.20800
N259        N  0.50106250  0.78719439  0.65657394    -0.33200
C260        C  0.50290496  0.83649526  0.66572241    -0.10800
C261        C  0.50485104  0.84600691  0.71629405    -0.29600
N262        N  0.50234338  0.71506662  0.84355526    -0.46200
C263        C  0.49952165  0.66584861  0.83477842    -0.05500
C264        C  0.49793633  0.65595127  0.78416007    -0.22800
H265        H  0.49729365  0.68686719  0.68237045     0.19000
H266        H  0.50634763  0.81490813  0.81758625     0.17800
H267        H  0.50636402  0.88164602  0.73441418     0.14000
H268        H  0.49570130  0.62020170  0.76630903     0.13900
H269        H  0.49918332  0.76976476  0.62216222     0.32100
H270        H  0.50412568  0.73271932  0.87785366     0.34800
C271        C  0.50144848  0.26654280  0.79745485     0.20400
C272        C  0.50022203  0.21570154  0.78745348    -0.39500
C273        C  0.50120896  0.20279050  0.73729669     0.19400
C274        C  0.50328129  0.23778596  0.69988423     0.22000
C275        C  0.50445180  0.28870033  0.70987892    -0.40000
C276        C  0.50345707  0.30162590  0.76011273     0.20800
N277        N  0.50057890  0.28827006  0.84207459    -0.33200
C278        C  0.50195107  0.33759013  0.83313143    -0.10800
C279        C  0.50383657  0.34737630  0.78242284    -0.29600
N280        N  0.50394352  0.21584855  0.65531541    -0.46200
C281        C  0.50225427  0.16655066  0.66452615    -0.05500
C282        C  0.50049690  0.15700657  0.71523468    -0.22800
H283        H  0.49858476  0.18821869  0.81658161     0.19000
H284        H  0.50597914  0.31618154  0.68074006     0.17800
H285        H  0.50503687  0.38313276  0.76435246     0.14000
H286        H  0.49889560  0.12135628  0.73348585     0.13900
H287        H  0.49883865  0.27062455  0.87644431     0.32100
H288        H  0.50543288  0.23330692  0.62083952     0.34800
C289        C  0.73700193  0.20181219  0.50735713     0.20400
C290        C  0.78773278  0.21162651  0.50518018    -0.39500
C291        C  0.80080859  0.26172186  0.50669638     0.19400
C292        C  0.76606279  0.29912688  0.51027378     0.22000
C293        C  0.71537119  0.28928773  0.51284063    -0.40000
C294        C  0.70227393  0.23921645  0.51108573     0.20800
N295        N  0.71494018  0.15746780  0.50459803    -0.33200
C296        C  0.66583031  0.16681722  0.50630382    -0.10800
C297        C  0.65648432  0.21733746  0.51065478    -0.29600
N298        N  0.78789894  0.34366816  0.50963413    -0.46200
C299        C  0.83688503  0.33446785  0.50564940    -0.05500
C300        C  0.84640587  0.28380854  0.50385954    -0.22800
H301        H  0.81492527  0.18249887  0.50171668     0.19000
H302        H  0.68812085  0.31847474  0.51513690     0.17800
H303        H  0.62098273  0.23560952  0.51246034     0.14000
H304        H  0.88183968  0.26565846  0.50030682     0.13900
H305        H  0.73220239  0.12310489  0.50096495     0.32100
H306        H  0.77052177  0.37812498  0.51135406     0.34800
C307        C  0.79987179  0.73669534  0.50037362     0.20400
C308        C  0.78975726  0.78697915  0.50782287    -0.39500
C309        C  0.73988179  0.80033567  0.50519070     0.19400
C310        C  0.70286945  0.76619130  0.49615918     0.22000
C311        C  0.71297989  0.71588531  0.48864851    -0.40000
C312        C  0.76291532  0.70255731  0.49107819     0.20800
N313        N  0.84415130  0.71450359  0.50202483    -0.33200
C314        C  0.83527103  0.66581518  0.49409401    -0.10800
C315        C  0.78508065  0.65697155  0.48671832    -0.29600
N316        N  0.65856877  0.78839609  0.49503686    -0.46200
C317        C  0.66758035  0.83706846  0.50297291    -0.05500
C318        C  0.71783430  0.84593337  0.50962451    -0.22800
H319        H  0.81858285  0.81371971  0.51511784     0.19000
H320        H  0.68412759  0.68911862  0.48154287     0.17800
H321        H  0.76716271  0.62180249  0.48011055     0.14000
H322        H  0.73582456  0.88106682  0.51622961     0.13900
H323        H  0.87812805  0.73128898  0.50924097     0.32100
H324        H  0.62446924  0.77162570  0.48838389     0.34800
C325        C  0.20352199  0.26629450  0.49122262     0.20400
C326        C  0.21393641  0.21547904  0.48913090    -0.39500
C327        C  0.26411344  0.20272162  0.49027776     0.19400
C328        C  0.30117815  0.23784153  0.49322298     0.22000
C329        C  0.29077012  0.28870396  0.49554638    -0.40000
C330        C  0.24052391  0.30146992  0.49439823     0.20800
N331        N  0.15880868  0.28789281  0.49072528    -0.33200
C332        C  0.16729440  0.33725267  0.49365951    -0.10800
C333        C  0.21787835  0.34711933  0.49600860    -0.29600
N334        N  0.34581497  0.21604260  0.49401910    -0.46200
C335        C  0.33703335  0.16664345  0.49182967    -0.05500
C336        C  0.28650188  0.15699100  0.48937336    -0.22800
H337        H  0.18508407  0.18787694  0.48685232     0.19000
H338        H  0.31962532  0.31628370  0.49809903     0.17800
H339        H  0.23566415  0.38287414  0.49872393     0.14000
H340        H  0.26854921  0.12125904  0.48769178     0.13900
H341        H  0.12463674  0.27011479  0.48862911     0.32100
H342        H  0.38004660  0.23365870  0.49652531     0.34800
C343        C  0.23663895  0.70074152  0.50111600     0.20400
C344        C  0.28770052  0.70999508  0.50218863    -0.39500
C345        C  0.30159048  0.76009860  0.50113088     0.19400
C346        C  0.26719436  0.79790445  0.49893504     0.22000
C347        C  0.21624905  0.78862245  0.49780351    -0.40000
C348        C  0.20237310  0.73866228  0.49912061     0.20800
N349        N  0.21387746  0.65653220  0.50236379    -0.33200
C350        C  0.16476321  0.66640929  0.50137090    -0.10800
C351        C  0.15618987  0.71727835  0.49926377    -0.29600
N352        N  0.28958211  0.84226469  0.49843769    -0.46200
C353        C  0.33869904  0.83292445  0.50038129    -0.05500
C354        C  0.34766810  0.78197002  0.50211073    -0.22800
H355        H  0.31457188  0.68041150  0.50398371     0.19000
H356        H  0.18935494  0.81819207  0.49630441     0.17800
H357        H  0.12093139  0.73606898  0.49799942     0.14000
H358        H  0.38306088  0.76346935  0.50390367     0.13900
H359        H  0.23072393  0.62179919  0.50391541     0.32100
H360        H  0.27242239  0.87683905  0.49689701     0.34800
C361        C  0.79832485  0.49103399  0.26247772     0.20400
C362        C  0.78838171  0.49319313  0.21159525    -0.39500
C363        C  0.73829796  0.49308223  0.19855259     0.19400
C364        C  0.70100384  0.49065169  0.23348790     0.22000
C365        C  0.71093590  0.48839319  0.28434444    -0.40000
C366        C  0.76100555  0.48888078  0.29740494     0.20800
N367        N  0.84274443  0.49279561  0.28448437    -0.33200
C368        C  0.83360606  0.49230709  0.33379063    -0.10800
C369        C  0.78304855  0.48947719  0.34327236    -0.29600
N370        N  0.65650838  0.49185936  0.21165066    -0.46200
C371        C  0.66553562  0.49521203  0.16245666    -0.05500
C372        C  0.71613603  0.49601707  0.15282235    -0.22800
H373        H  0.81745903  0.49559436  0.18424189     0.19000
H374        H  0.68182378  0.48720086  0.31173858     0.17800
H375        H  0.76484846  0.48909322  0.37891390     0.14000
H376        H  0.73422091  0.49869886  0.11721245     0.13900
H377        H  0.87705538  0.49531942  0.26703401     0.32100
H378        H  0.62215344  0.49064218  0.22915265     0.34800
C379        C  0.23440470  0.50473790  0.29863635     0.20400
C380        C  0.28522031  0.50721709  0.28909890    -0.39500
C381        C  0.29883568  0.50338157  0.23923442     0.19400
C382        C  0.26443648  0.49769300  0.20179039     0.22000
C383        C  0.21362794  0.49522952  0.21132813    -0.40000
C384        C  0.20002870  0.49898571  0.26117871     0.20800
N385        N  0.21205620  0.50707175  0.34287798    -0.29600
C386        C  0.16310802  0.50281487  0.33348115    -0.10800
C387        C  0.15413214  0.49776990  0.28293199    -0.29600
N388        N  0.28674587  0.49543201  0.15752815    -0.46200
C389        C  0.33571711  0.49970529  0.16681469    -0.05500
C390        C  0.34473873  0.50456933  0.21740751    -0.22800
H391        H  0.31213749  0.51176271  0.31832971     0.19000
H392        H  0.18669543  0.49074464  0.18210091     0.17800
H393        H  0.11885156  0.49336863  0.26465924     0.14000
H394        H  0.38003480  0.50890255  0.23566256     0.13900
H395        H  0.22906435  0.51118674  0.37730860     0.32100
H396        H  0.26966821  0.49146052  0.12311664     0.34800
C397        C  0.23348641  0.50077358  0.70102537     0.20400
C398        C  0.28405267  0.50440334  0.71151133    -0.39500
C399        C  0.29676711  0.50272604  0.76177803     0.19400
C400        C  0.26185980  0.49759430  0.79882368     0.22000
C401        C  0.21124223  0.49377294  0.78831910    -0.40000
C402        C  0.19850553  0.49573827  0.73802729     0.20800
N403        N  0.21188128  0.50245511  0.65630852    -0.33200
C404        C  0.16273611  0.49867420  0.66492318    -0.10800
C405        C  0.15297359  0.49432606  0.71543750    -0.29600
N406        N  0.28354801  0.49723369  0.84359335    -0.46200
C407        C  0.33265437  0.50210231  0.83492838    -0.05500
C408        C  0.34223018  0.50566541  0.78432305    -0.22800
H409        H  0.31145678  0.50861444  0.68267958     0.19000
H410        H  0.18377957  0.48999249  0.81715608     0.17800
H411        H  0.11733158  0.49095145  0.73321773     0.14000
H412        H  0.37773724  0.50975420  0.76643211     0.13900
H413        H  0.22945482  0.50641212  0.62213292     0.32100
H414        H  0.26605213  0.49361410  0.87784279     0.34800
C415        C  0.79672528  0.51442427  0.73329214     0.20400
C416        C  0.78648412  0.51587065  0.78417151    -0.39500
C417        C  0.73628042  0.51595080  0.79704619     0.19400
C418        C  0.69908040  0.51523268  0.76194614     0.22000
C419        C  0.70934682  0.51467494  0.71102014    -0.40000
C420        C  0.75955054  0.51403143  0.69816101     0.20800
N421        N  0.84128672  0.51099787  0.71165071    -0.33200
C422        C  0.83244190  0.50834486  0.66234793    -0.10800
C423        C  0.78188228  0.51043620  0.65251444    -0.29600
N424        N  0.65452009  0.51226214  0.78376740    -0.46200
C425        C  0.66339466  0.51069631  0.83315415    -0.05500
C426        C  0.71397837  0.51346224  0.84279875    -0.22800
H427        H  0.81545386  0.51527622  0.81174081     0.19000
H428        H  0.68039730  0.51318197  0.68346983     0.17800
H429        H  0.76387273  0.50869995  0.61681499     0.14000
H430        H  0.73207699  0.51236855  0.87847989     0.13900
H431        H  0.87553710  0.50989833  0.72937328     0.32100
H432        H  0.62029518  0.51015883  0.76609761     0.34800
C433        C  0.79802106  0.76443149  0.00188276     0.20400
C434        C  0.78821634  0.71370502  0.00733091    -0.39500
C435        C  0.73835450  0.70004450  0.00424003     0.19400
C436        C  0.70122373  0.73427724  0.99601851     0.22000
C437        C  0.71105393  0.78490791  0.99026550    -0.40000
C438        C  0.76083173  0.79862255  0.99379208     0.20800
N439        N  0.84212950  0.78700119  0.00453335    -0.33200
C440        C  0.83295937  0.83595661  0.99837905    -0.10800
C441        C  0.78262626  0.84462367  0.99147331    -0.29600
N442        N  0.65692863  0.71204862  0.99485313    -0.46200
C443        C  0.66584809  0.66325633  0.00220017    -0.05500
C444        C  0.71623959  0.65429010  0.00830057    -0.22800
H445        H  0.81720414  0.68694193  0.01394427     0.19000
H446        H  0.68201433  0.81170688  0.98405056     0.17800
H447        H  0.76442100  0.87983548  0.98584413     0.14000
H448        H  0.73422110  0.61907976  0.01464944     0.13900
H449        H  0.87629811  0.77017541  0.01068691     0.32100
H450        H  0.62277698  0.72898684  0.98890591     0.34800
C451        C  0.76271161  0.20047088  0.00159922     0.20400
C452        C  0.71205712  0.21029531  0.00690443    -0.39500
C453        C  0.69847974  0.26038060  0.00440932     0.19400
C454        C  0.73280981  0.29771918  0.99759377     0.22000
C455        C  0.78339199  0.28789881  0.99254221    -0.40000
C456        C  0.79692428  0.23788810  0.99471264     0.20800
N457        N  0.78505105  0.15605580  0.00191794    -0.33200
C458        C  0.83386029  0.16530193  0.99533920    -0.10800
C459        C  0.84264369  0.21595816  0.99067006    -0.29600
N460        N  0.71059568  0.34209921  0.99569694    -0.46200
C461        C  0.66166180  0.33308070  0.00099744    -0.05500
C462        C  0.65264838  0.28249607  0.00670945    -0.22800
H463        H  0.68518330  0.18110127  0.01207196     0.19000
H464        H  0.81020562  0.31705154  0.98688928     0.17800
H465        H  0.87776425  0.23426782  0.98523390     0.14000
H466        H  0.61732850  0.26436435  0.01142125     0.13900
H467        H  0.76817414  0.12162873  0.00674279     0.32100
H468        H  0.72766802  0.37637011  0.99046773     0.34800
C469        C  0.23542664  0.80047409  0.99612471     0.20400
C470        C  0.28632573  0.79079340  0.99567144    -0.39500
C471        C  0.29953525  0.74060377  0.99566939     0.19400
C472        C  0.26471436  0.70309181  0.99599067     0.22000
C473        C  0.21393746  0.71279841  0.99642702    -0.40000
C474        C  0.20073718  0.76285976  0.99651703     0.20800
N475        N  0.21319234  0.84488155  0.99672425    -0.33200
C476        C  0.16403654  0.83531447  0.99759755    -0.10800
C477        C  0.15486928  0.78458708  0.99741406    -0.29600
N478        N  0.28659281  0.65856479  0.99660322    -0.46200
C479        C  0.33575335  0.66770008  0.99686173    -0.05500
C480        C  0.34531371  0.71846018  0.99613972    -0.22800
H481        H  0.31356677  0.82009715  0.99564484     0.19000
H482        H  0.18669940  0.68350730  0.99696986     0.17800
H483        H  0.11942812  0.76611296  0.99808593     0.14000
H484        H  0.38091350  0.73664478  0.99637969     0.13900
H485        H  0.23038611  0.87948253  0.99673285     0.32100
H486        H  0.26911357  0.62411479  0.99722335     0.34800
C487        C  0.23375704  0.20233492  0.99129006     0.20400
C488        C  0.28440212  0.21279650  0.99316536    -0.39500
C489        C  0.29690375  0.26312631  0.99335812     0.19400
C490        C  0.26173080  0.30025155  0.99170505     0.22000
C491        C  0.21106352  0.28977639  0.98940413    -0.40000
C492        C  0.19854779  0.23942249  0.98934836     0.20800
N493        N  0.21227575  0.15756669  0.99291339    -0.33200
C494        C  0.16301883  0.16626924  0.99227775    -0.10800
C495        C  0.15303245  0.21685020  0.98961592    -0.29600
N496        N  0.28321179  0.34506395  0.99338214    -0.46200
C497        C  0.33243688  0.33630869  0.99604568    -0.05500
C498        C  0.34233760  0.28565460  0.99599261    -0.22800
H499        H  0.31200152  0.18390668  0.99512980     0.19000
H500        H  0.18340692  0.31866102  0.98855169     0.17800
H501        H  0.11727596  0.23471103  0.98910520     0.14000
H502        H  0.37801612  0.26773420  0.99787450     0.13900
H503        H  0.23000882  0.12332356  0.99528081     0.32100
H504        H  0.26549147  0.37938522  0.99279803     0.34800
C505        C  0.73691825  0.02012794  0.70053169     0.20400
C506        C  0.78771028  0.01697727  0.70999542    -0.39500
C507        C  0.80117259  0.01634178  0.76001144     0.19400
C508        C  0.76669106  0.01886307  0.79771658     0.22000
C509        C  0.71591136  0.02248096  0.78827330    -0.40000
C510        C  0.70240618  0.02285329  0.73820409     0.20800
N511        N  0.71456996  0.01775687  0.65629281    -0.33200
C512        C  0.66544195  0.01840324  0.66579697    -0.10800
C513        C  0.65639678  0.02225604  0.71647886    -0.29600
N514        N  0.78879857  0.01569483  0.84203299    -0.46200
C515        C  0.83767926  0.01112357  0.83242120    -0.05500
C516        C  0.84689006  0.01157188  0.78167614    -0.22800
H517        H  0.81465234  0.01389700  0.68060178     0.19000
H518        H  0.68886741  0.02353219  0.81772130     0.17800
H519        H  0.62098865  0.02243479  0.73501699     0.14000
H520        H  0.88216062  0.00819996  0.76317516     0.13900
H521        H  0.73171843  0.01402614  0.62189303     0.32100
H522        H  0.77164293  0.01617767  0.87663582     0.34800
C523        C  0.20379678  0.98511314  0.76600146     0.20400
C524        C  0.21444493  0.98002688  0.71545998    -0.39500
C525        C  0.26417410  0.98607934  0.70224879     0.19400
C526        C  0.30063511  0.99566509  0.73680718     0.22000
C527        C  0.29006686  0.00015632  0.78743768    -0.40000
C528        C  0.24025493  0.99474721  0.80055786     0.20800
N529        N  0.15913042  0.98380665  0.78761657    -0.33200
C530        C  0.16723513  0.99270596  0.83629543    -0.10800
C531        C  0.21741091  0.99947821  0.84579992    -0.29600
N532        N  0.34471546  0.00121090  0.71460767    -0.46200
C533        C  0.33622826  0.99539905  0.66548126    -0.05500
C534        C  0.28641300  0.98584986  0.65641040    -0.22800
H535        H  0.18594604  0.97312834  0.68827104     0.19000
H536        H  0.31834643  0.00842019  0.81447378     0.17800
H537        H  0.23469553  0.00780601  0.88091345     0.14000
H538        H  0.26882319  0.97975497  0.62099649     0.13900
H539        H  0.12521716  0.97780726  0.77023785     0.32100
H540        H  0.37835619  0.00905450  0.73178007     0.34800
C541        C  0.26636941  0.99331354  0.29835395     0.20400
C542        C  0.21536984  0.99213112  0.28882877    -0.39500
C543        C  0.20165721  0.99459337  0.23875963     0.19400
C544        C  0.23614603  0.99769307  0.20111857     0.22000
C545        C  0.28710664  0.99872822  0.21065343    -0.40000
C546        C  0.30081382  0.99651156  0.26068708     0.20800
N547        N  0.28881691  0.99276093  0.34273087    -0.33200
C548        C  0.33794276  0.99581494  0.33334610    -0.10800
C549        C  0.34684607  0.99798522  0.28250279    -0.29600
N550        N  0.21375690  0.00024023  0.15678648    -0.46200
C551        C  0.16456555  0.99897849  0.16611640    -0.05500
C552        C  0.15559505  0.99535046  0.21690504    -0.22800
H553        H  0.18835639  0.99001948  0.31825361     0.19000
H554        H  0.31409764  0.00158914  0.18127687     0.17800
H555        H  0.38216951  0.00097254  0.26403501     0.14000
H556        H  0.12016434  0.99360396  0.23532483     0.13900
H557        H  0.27170512  0.99093047  0.37731212     0.32100
H558        H  0.23093884  0.00293588  0.12229616     0.34800
C559        C  0.76528382  0.99399845  0.20130574     0.20400
C560        C  0.71487592  0.99042706  0.21235013    -0.39500
C561        C  0.70280572  0.99226622  0.26271796     0.19400
C562        C  0.73814549  0.99715412  0.29939393     0.22000
C563        C  0.78861129  0.00055440  0.28837203    -0.40000
C564        C  0.80067193  0.99878855  0.23795512     0.20800
N565        N  0.78625862  0.99398182  0.15625650    -0.33200
C566        C  0.83539315  0.99873741  0.16437730    -0.10800
C567        C  0.84576044  0.00175367  0.21484564    -0.29600
N568        N  0.71691059  0.99887114  0.34429728    -0.46200
C569        C  0.66769135  0.99519380  0.33597556    -0.05500
C570        C  0.65754950  0.99088129  0.28559196    -0.22800
H571        H  0.68705986  0.98692277  0.18383027     0.19000
H572        H  0.81637958  0.00467189  0.31686223     0.17800
H573        H  0.88151549  0.00579026  0.23224931     0.14000
H574        H  0.62178246  0.98775755  0.26802672     0.13900
H575        H  0.76828532  0.99091097  0.12220987     0.32100
H576        H  0.73471758  0.00290145  0.37833048     0.34800
C577        C  0.00252283  0.20036766  0.76164453     0.20400
C578        C  0.99999315  0.21054831  0.71081584    -0.39500
C579        C  0.99697773  0.26074854  0.69799462     0.19400
C580        C  0.99666450  0.29798971  0.73308568     0.22000
C581        C  0.99911907  0.28783586  0.78392206    -0.40000
C582        C  0.00197742  0.23761710  0.79673088     0.20800
N583        N  0.00449290  0.15565941  0.78340833    -0.33200
C584        C  0.00476603  0.16452628  0.83272603    -0.10800
C585        C  0.00356124  0.21523469  0.84244214    -0.29600
N586        N  0.99489938  0.34265713  0.71129649    -0.46200
C587        C  0.99438593  0.33375521  0.66195425    -0.05500
C588        C  0.99521304  0.28309766  0.65224263    -0.22800
H589        H  0.00036355  0.18153453  0.68328222     0.19000
H590        H  0.99880046  0.31686385  0.81145102     0.17800
H591        H  0.00279544  0.23324038  0.87817068     0.14000
H592        H  0.99570390  0.26511760  0.61650542     0.13900
H593        H  0.00455161  0.12127606  0.76582952     0.32100
H594        H  0.99517085  0.37703860  0.72889029     0.34800
C595        C  0.00007526  0.79606444  0.76632007     0.20400
C596        C  0.00236211  0.78619605  0.71554299    -0.39500
C597        C  0.00327005  0.73608958  0.70260786     0.19400
C598        C  0.00223691  0.69854736  0.73750976     0.22000
C599        C  0.99989196  0.70841961  0.78842428    -0.40000
C600        C  0.99874646  0.75866735  0.80138115     0.20800
N601        N  0.99912291  0.84066884  0.78798628    -0.33200
C602        C  0.99725202  0.83173010  0.83726973    -0.10800
C603        C  0.99672889  0.78098796  0.84710732    -0.29600
N604        N  0.00252288  0.65404280  0.71539790    -0.46200
C605        C  0.00333903  0.66353444  0.66609998    -0.05500
C606        C  0.00408331  0.71425841  0.65677307    -0.22800
H607        H  0.00310256  0.81539715  0.68809623     0.19000
H608        H  0.99879675  0.67921126  0.81585337     0.17800
H609        H  0.99568265  0.76292886  0.88286605     0.14000
H610        H  0.00430614  0.73268446  0.62118853     0.13900
H611        H  0.00025126  0.87505726  0.77031277     0.32100
H612        H  0.00137719  0.61947573  0.73271737     0.34800
C613        C  0.98958369  0.76666366  0.20219131     0.20400
C614        C  0.97992416  0.71685289  0.21309684    -0.39500
C615        C  0.98564063  0.70328890  0.26283385     0.19400
C616        C  0.99975898  0.73678770  0.29886977     0.22000
C617        C  0.00943440  0.78653024  0.28792778    -0.40000
C618        C  0.00362247  0.80012916  0.23827460     0.20800
N619        N  0.98660854  0.78893869  0.15788516    -0.33200
C620        C  0.99838792  0.83698865  0.16600805    -0.10800
C621        C  0.00933406  0.84538572  0.21565485    -0.29600
N622        N  0.00361112  0.71450717  0.34309618    -0.46200
C623        C  0.99240186  0.66636765  0.33505255    -0.05500
C624        C  0.98068903  0.65795499  0.28550997    -0.22800
H625        H  0.96902203  0.69059986  0.18494583     0.19000
H626        H  0.02072396  0.81269292  0.31599732     0.17800
H627        H  0.01991524  0.87993573  0.23284049     0.14000
H628        H  0.97077373  0.62320931  0.26830651     0.13900
H629        H  0.97649345  0.77263872  0.12437063     0.32100
H630        H  0.01445420  0.73077611  0.37639291     0.34800
C631        C  0.00746238  0.20538277  0.22997913     0.20400
C632        C  0.01085135  0.21542138  0.28064524    -0.39500
C633        C  0.00922129  0.26549134  0.29364336     0.19400
C634        C  0.00472524  0.30289087  0.25887551     0.22000
C635        C  0.00166230  0.29286708  0.20797593    -0.40000
C636        C  0.00319284  0.24260620  0.19496631     0.20800
N637        N  0.00718791  0.16069618  0.20848647    -0.33200
C638        C  0.00285502  0.16936258  0.15934820    -0.10800
C639        C  0.00035141  0.22004584  0.14937111    -0.29600
N640        N  0.00245940  0.34728973  0.28116134    -0.46200
C641        C  0.00526345  0.33785810  0.33043876    -0.05500
C642        C  0.00981525  0.28729336  0.33952813    -0.22800
H643        H  0.01386459  0.18630383  0.30802007     0.19000
H644        H  0.99778420  0.32192690  0.18064064     0.17800
H645        H  0.99667404  0.23788451  0.11367001     0.14000
H646        H  0.01242071  0.26888828  0.37502429     0.13900
H647        H  0.00978737  0.12640974  0.22620048     0.32100
H648        H  0.99838986  0.38170432  0.26398397     0.34800
loop_ 
_geom_bond_atom_site_label_1 
_geom_bond_atom_site_label_2 
_geom_bond_distance 
_geom_bond_site_symmetry_2 
_ccdc_geom_bond_type 
O1           C12   1.292       .  A
O1          Eu37   2.465   1_455  S
O2           C13   1.293       .  A
O2          Eu36   2.472   1_545  S
O3           C14   1.289       .  A
O3           Eu9   2.448   1_455  S
O4           C15   1.292       .  A
O4           Eu9   2.467       .  S
O5           C15   1.289       .  A
O5          Eu39   2.453       .  S
O6           C14   1.291       .  A
O6          Eu38   2.461   1_556  S
O7           C13   1.288       .  A
O7           Eu9   2.440   1_455  S
O8           C12   1.288       .  A
O8           Eu9   2.442   1_454  S
Eu9          O19   2.349   1_556  S
Eu9          O11   2.355   1_656  S
Eu9          O10   2.343       .  S
Eu9          O17   2.353   1_655  S
O10         Eu39   2.351       .  S
O10         Eu36   2.353   1_645  S
O11         Eu37   2.348   1_455  S
O11         Eu38   2.350       .  S
C12         C638   1.469       .  S
C13         C584   1.471       .  S
C14         C494   1.470       .  S
C15         C458   1.475       .  S
H16          O17   0.964       .  S
O17         Eu38   2.347   1_556  S
O17         Eu36   2.346   1_545  S
H18          O19   0.966       .  S
O19         Eu37   2.358       .  S
O19         Eu39   2.354   1_554  S
O20          C43   1.291       .  A
O20         Eu36   2.462   1_655  S
O21          C44   1.292       .  A
O21         Eu37   2.462   1_565  S
O22          C45   1.290       .  A
O22         Eu38   2.455   1_566  S
O23          C46   1.290       .  A
O23         Eu39   2.454       .  S
O24          C47   1.292       .  A
O24         Eu39   2.466   1_564  S
O25          C48   1.292       .  A
O25         Eu38   2.465       .  S
O26          C49   1.292       .  A
O26         Eu40   2.462   1_456  S
O27          C50   1.292   1_554  A
O27         Eu40   2.467       .  S
O28          C49   1.289       .  A
O28         Eu38   2.450   1_566  S
O29          C50   1.290       .  A
O29         Eu39   2.456   1_565  S
O30          C45   1.291       .  A
O30         Eu36   2.462       .  S
O31          C48   1.292       .  A
O31         Eu37   2.467   1_455  S
O32          C47   1.290   1_545  A
O32         Eu37   2.449       .  S
O33          C46   1.290       .  A
O33         Eu36   2.449   1_645  S
O34          C43   1.290       .  A
O34         Eu40   2.452   1_556  S
O35          C44   1.289       .  A
O35         Eu40   2.448       .  S
Eu36         O54   2.359   1_455  S
Eu36         O42   2.351       .  S
Eu37         O41   2.356   1_545  S
Eu37         O52   2.349   1_645  S
Eu38         O52   2.353   1_545  S
Eu38         O42   2.356   1_544  S
Eu39         O41   2.352   1_546  S
Eu39         O54   2.356   1_545  S
Eu40         O41   2.349       .  S
Eu40         O52   2.358   1_655  S
Eu40         O54   2.353   1_554  S
Eu40         O42   2.352   1_654  S
C43         C602   1.470       .  S
C44         C620   1.467       .  S
C45         C530   1.472       .  S
C46         C515   1.467       .  S
C47         C566   1.470       .  S
C48         C551   1.479   1_545  S
C49         C476   1.469       .  S
C50         C440   1.474       .  S
H51          O52   0.964       .  S
H53          O54   0.965       .  S
O55          C66   1.289       .  A
O55         Eu91   2.454   1_455  S
O56          C67   1.290       .  A
O56         Eu90   2.452       .  S
O57          C68   1.293       .  A
O57         Eu63   2.473       .  S
O58          C69   1.290       .  A
O58         Eu63   2.447   1_655  S
O59          C69   1.291       .  A
O59         Eu93   2.456       .  S
O60          C68   1.290       .  A
O60         Eu92   2.455       .  S
O61          C67   1.291       .  A
O61         Eu63   2.458   1_655  S
O62          C66   1.293       .  A
O62         Eu63   2.467       .  S
Eu63         O73   2.354   1_455  S
Eu63         O65   2.342       .  S
Eu63         O64   2.355   1_455  S
Eu63         O71   2.351       .  S
O64         Eu93   2.346       .  S
O64         Eu90   2.345       .  S
O65         Eu91   2.349   1_455  S
O65         Eu92   2.352       .  S
C66         C641   1.474       .  S
C67         C587   1.470       .  S
C68         C332   1.477       .  S
C69         C299   1.466       .  S
H70          O71   0.963       .  S
O71         Eu92   2.357       .  S
O71         Eu90   2.363   1_455  S
H72          O73   0.966       .  S
O73         Eu91   2.349       .  S
O73         Eu93   2.356       .  S
O74          C97   1.290       .  A
O74         Eu90   2.455   1_455  S
O75          C98   1.289       .  A
O75         Eu91   2.444       .  S
O76          C99   1.291       .  A
O76         Eu92   2.458       .  S
O77         C100   1.290       .  A
O77         Eu93   2.454       .  S
O78         C101   1.290       .  A
O78         Eu93   2.455       .  S
O79         C102   1.291       .  A
O79         Eu92   2.457       .  S
O80         C103   1.292       .  A
O80         Eu94   2.461   1_455  S
O81         C104   1.290       .  A
O81         Eu94   2.452       .  S
O82         C103   1.290       .  A
O82         Eu92   2.459       .  S
O83         C104   1.291       .  A
O83         Eu93   2.458       .  S
O84          C99   1.290       .  A
O84         Eu90   2.453   1_455  S
O85         C102   1.290       .  A
O85         Eu91   2.451   1_455  S
O86         C101   1.291       .  A
O86         Eu91   2.463       .  S
O87         C100   1.292       .  A
O87         Eu90   2.469       .  S
O88          C97   1.291       .  A
O88         Eu94   2.458   1_455  S
O89          C98   1.291       .  A
O89         Eu94   2.459       .  S
Eu90        O108   2.351       .  S
Eu90         O96   2.352   1_655  S
Eu91         O95   2.347       .  S
Eu91        O106   2.362   1_655  S
Eu92        O106   2.354       .  S
Eu92         O96   2.349       .  S
Eu93         O95   2.346       .  S
Eu93        O108   2.357       .  S
Eu94         O95   2.354       .  S
Eu94        O106   2.351   1_655  S
Eu94        O108   2.353       .  S
Eu94         O96   2.348   1_655  S
C97         C605   1.471       .  S
C98         C623   1.467       .  S
C99         C404   1.471       .  S
C100        C422   1.475       .  S
C101        C368   1.472       .  S
C102        C386   1.468       .  S
C103        C350   1.475       .  S
C104        C314   1.469       .  S
H105        O106   0.964       .  S
H107        O108   0.966       .  S
O109        C120   1.291       .  A
O109       Eu145   2.460   1_565  S
O110        C121   1.292       .  A
O110       Eu144   2.462   1_565  S
O111        C122   1.290       .  A
O111       Eu117   2.454       .  S
O112        C123   1.290       .  A
O112       Eu117   2.449   1_545  S
O113        C123   1.291       .  A
O113       Eu147   2.462       .  S
O114        C122   1.290       .  A
O114       Eu146   2.455       .  S
O115        C121   1.293       .  A
O115       Eu117   2.468       .  S
O116        C120   1.290       .  A
O116       Eu117   2.451       .  S
Eu117       O127   2.360   1_565  S
Eu117       O119   2.349       .  S
Eu117       O118   2.351   1_565  S
Eu117       O125   2.348       .  S
O118       Eu147   2.351       .  S
O118       Eu144   2.354       .  S
O119       Eu145   2.353   1_565  S
O119       Eu146   2.349       .  S
C120        C569   1.470       .  S
C121        C548   1.478       .  S
C122        C242   1.471       .  S
C123        C224   1.469       .  S
H124        O125   0.966       .  S
O125       Eu146   2.349       .  S
O125       Eu144   2.354   1_565  S
H126        O127   0.964       .  S
O127       Eu145   2.353       .  S
O127       Eu147   2.358       .  S
O128        C151   1.293       .  A
O128       Eu144   2.472   1_565  S
O129        C152   1.290       .  A
O129       Eu145   2.455       .  S
O130        C153   1.290       .  A
O130       Eu146   2.457       .  S
O131        C154   1.291       .  A
O131       Eu147   2.456       .  S
O132        C155   1.290       .  A
O132       Eu147   2.453       .  S
O133        C156   1.290       .  A
O133       Eu146   2.453       .  S
O134        C157   1.292       .  A
O134       Eu148   2.461   1_565  S
O135        C158   1.289       .  A
O135       Eu148   2.445       .  S
O136        C157   1.288       .  A
O136       Eu146   2.442       .  S
O137        C158   1.292       .  A
O137       Eu147   2.468       .  S
O138        C153   1.294       .  A
O138       Eu144   2.477   1_565  S
O139        C156   1.290       .  A
O139       Eu145   2.450   1_565  S
O140        C155   1.289       .  A
O140       Eu145   2.452       .  S
O141        C154   1.293       .  A
O141       Eu144   2.471       .  S
O142        C151   1.291       .  A
O142       Eu148   2.459   1_565  S
O143        C152   1.292       .  A
O143       Eu148   2.464       .  S
Eu144       O162   2.359       .  S
Eu144       O150   2.350   1_545  S
Eu145       O149   2.342       .  S
Eu145       O160   2.357   1_545  S
Eu146       O160   2.361       .  S
Eu146       O150   2.352       .  S
Eu147       O149   2.341       .  S
Eu147       O162   2.361       .  S
Eu148       O149   2.343       .  S
Eu148       O160   2.355   1_545  S
Eu148       O162   2.361       .  S
Eu148       O150   2.349   1_545  S
C151        C533   1.477       .  S
C152        C512   1.473       .  S
C153        C353   1.478       .  S
C154        C335   1.476       .  S
C155        C296   1.467       .  S
C156        C317   1.467       .  S
C157        C260   1.467       .  S
C158        C281   1.471       .  S
H159        O160   0.963       .  S
H161        O162   0.966       .  S
O163        C174   1.291       .  A
O163       Eu199   2.457       .  S
O164        C175   1.290       .  A
O164       Eu198   2.453   1_556  S
O165        C176   1.291       .  A
O165       Eu171   2.463       .  S
O166        C177   1.291       .  A
O166       Eu171   2.463   1_556  S
O167        C177   1.292       .  A
O167       Eu201   2.465       .  S
O168        C176   1.290       .  A
O168       Eu200   2.452       .  S
O169        C175   1.291       .  A
O169       Eu171   2.459   1_556  S
O170        C174   1.291       .  A
O170       Eu171   2.461   1_556  S
Eu171       O181   2.356   1_554  S
Eu171       O173   2.351       .  S
Eu171       O172   2.354   1_554  S
Eu171       O179   2.361       .  S
O172       Eu201   2.351       .  S
O172       Eu198   2.352   1_556  S
O173       Eu199   2.352   1_554  S
O173       Eu200   2.355       .  S
C174        C497   1.473       .  S
C175        C479   1.470       .  S
C176        C389   1.470       .  S
C177        C407   1.476       .  S
H178        O179   0.966       .  S
O179       Eu200   2.355       .  S
O179       Eu198   2.355       .  S
H180        O181   0.966       .  S
O181       Eu199   2.352       .  S
O181       Eu201   2.354       .  S
O182        C205   1.291       .  A
O182       Eu198   2.462       .  S
O183        C206   1.291       .  A
O183       Eu199   2.459   1_554  S
O184        C207   1.291       .  A
O184       Eu200   2.462       .  S
O185        C208   1.288       .  A
O185       Eu201   2.442       .  S
O186        C209   1.289       .  A
O186       Eu201   2.446       .  S
O187        C210   1.290       .  A
O187       Eu200   2.451       .  S
O188        C211   1.289       .  A
O188       Eu202   2.448   1_554  S
O189        C212   1.292       .  A
O189       Eu202   2.464       .  S
O190        C211   1.291       .  A
O190       Eu200   2.463       .  S
O191        C212   1.293       .  A
O191       Eu201   2.472       .  S
O192        C207   1.290       .  A
O192       Eu198   2.452       .  S
O193        C210   1.292       .  A
O193       Eu199   2.463   1_554  S
O194        C209   1.292       .  A
O194       Eu199   2.466       .  S
O195        C208   1.291       .  A
O195       Eu198   2.457   1_556  S
O196        C205   1.290       .  A
O196       Eu202   2.450   1_554  S
O197        C206   1.291   1_556  A
O197       Eu202   2.461       .  S
Eu198       O216   2.348   1_554  S
Eu198       O204   2.349       .  S
Eu199       O203   2.355       .  S
Eu199       O214   2.351   1_556  S
Eu200       O214   2.354       .  S
Eu200       O204   2.347       .  S
Eu201       O203   2.353       .  S
Eu201       O216   2.348       .  S
Eu202       O203   2.349       .  S
Eu202       O214   2.352   1_556  S
Eu202       O216   2.350       .  S
Eu202       O204   2.356   1_556  S
C205        C443   1.471       .  S
C206        C461   1.474       .  S
C207        C245   1.472       .  S
C208        C263   1.466       .  S
C209        C278   1.471       .  S
C210        C227   1.471       .  S
C211        C371   1.470       .  S
C212        C425   1.479       .  S
H213        O214   0.965       .  S
H215        O216   0.964       .  S
C217        C222   1.385       .  A
C217        C218   1.402       .  A
C217        N223   1.341       .  A
C218        C219   1.401       .  A
C218        H229   1.082       .  S
C219        C228   1.377       .  A
C219        C220   1.385       .  A
C220        C221   1.403       .  A
C220        N226   1.342       .  A
C221        C222   1.402       .  A
C221        H230   1.082       .  S
C222        C225   1.378       .  A
N223        C224   1.355       .  A
N223        H233   1.045       .  S
C224        C225   1.396       .  A
C225        H231   1.083       .  S
N226        C227   1.355       .  A
N226        H234   1.045       .  S
C227        C228   1.396       .  A
C228        H232   1.083       .  S
C235        C240   1.384       .  A
C235        C236   1.403       .  A
C235        N241   1.343       .  A
C236        C237   1.403       .  A
C236        H247   1.082       .  S
C237        C246   1.377       .  A
C237        C238   1.385       .  A
C238        C239   1.402       .  A
C238        N244   1.343       .  A
C239        C240   1.402       .  A
C239        H248   1.082       .  S
C240        C243   1.377       .  A
N241        C242   1.356       .  A
N241        H251   1.045       .  S
C242        C243   1.395       .  A
C243        H249   1.082       .  S
N244        C245   1.356       .  A
N244        H252   1.045       .  S
C245        C246   1.396       .  A
C246        H250   1.082       .  S
C253        C258   1.385       .  A
C253        C254   1.403       .  A
C253        N259   1.343       .  A
C254        C255   1.402       .  A
C254        H265   1.083       .  S
C255        C264   1.375       .  A
C255        C256   1.385       .  A
C256        C257   1.400       .  A
C256        N262   1.342       .  A
C257        C258   1.399       .  A
C257        H266   1.082       .  S
C258        C261   1.374       .  A
N259        C260   1.357       .  A
N259        H269   1.045       .  S
C260        C261   1.393       .  A
C261        H267   1.082       .  S
N262        C263   1.354       .  A
N262        H270   1.045       .  S
C263        C264   1.395       .  A
C264        H268   1.083       .  S
C271        C276   1.385       .  A
C271        C272   1.401       .  A
C271        N277   1.343       .  A
C272        C273   1.401       .  A
C272        H283   1.082       .  S
C273        C282   1.375       .  A
C273        C274   1.385       .  A
C274        C275   1.403       .  A
C274        N280   1.344       .  A
C275        C276   1.403       .  A
C275        H284   1.082       .  S
C276        C279   1.377       .  A
N277        C278   1.355       .  A
N277        H287   1.045       .  S
C278        C279   1.397       .  A
C279        H285   1.083       .  S
N280        C281   1.356       .  A
N280        H288   1.045       .  S
C281        C282   1.395       .  A
C282        H286   1.083       .  S
C289        C294   1.385       .  A
C289        C290   1.401       .  A
C289        N295   1.341       .  A
C290        C291   1.400       .  A
C290        H301   1.082       .  S
C291        C300   1.374       .  A
C291        C292   1.385       .  A
C292        C293   1.401       .  A
C292        N298   1.341       .  A
C293        C294   1.400       .  A
C293        H302   1.082       .  S
C294        C297   1.374       .  A
N295        C296   1.355       .  A
N295        H305   1.045       .  S
C296        C297   1.394       .  A
C297        H303   1.082       .  S
N298        C299   1.355       .  A
N298        H306   1.045       .  S
C299        C300   1.394       .  A
C300        H304   1.083       .  S
C307        C312   1.385       .  A
C307        C308   1.401       .  A
C307        N313   1.342       .  A
C308        C309   1.400       .  A
C308        H319   1.082       .  S
C309        C318   1.375       .  A
C309        C310   1.385       .  A
C310        C311   1.402       .  A
C310        N316   1.342       .  A
C311        C312   1.402       .  A
C311        H320   1.082       .  S
C312        C315   1.376       .  A
N313        C314   1.355       .  A
N313        H323   1.045       .  S
C314        C315   1.395       .  A
C315        H321   1.082       .  S
N316        C317   1.355       .  A
N316        H324   1.045       .  S
C317        C318   1.394       .  A
C318        H322   1.082       .  S
C325        C330   1.384       .  A
C325        C326   1.403       .  A
C325        N331   1.345       .  A
C326        C327   1.403       .  A
C326        H337   1.082       .  S
C327        C336   1.377       .  A
C327        C328   1.384       .  A
C328        C329   1.405       .  A
C328        N334   1.345       .  A
C329        C330   1.405       .  A
C329        H338   1.082       .  S
C330        C333   1.379       .  A
N331        C332   1.356       .  A
N331        H341   1.045       .  S
C332        C333   1.398       .  A
C333        H339   1.082       .  S
N334        C335   1.358       .  A
N334        H342   1.045       .  S
C335        C336   1.395       .  A
C336        H340   1.082       .  S
C343        C348   1.384       .  A
C343        C344   1.406       .  A
C343        N349   1.345       .  A
C344        C345   1.406       .  A
C344        H355   1.082       .  S
C345        C354   1.381       .  A
C345        C346   1.384       .  A
C346        C347   1.403       .  A
C346        N352   1.344       .  A
C347        C348   1.402       .  A
C347        H356   1.082       .  S
C348        C351   1.378       .  A
N349        C350   1.357       .  A
N349        H359   1.045       .  S
C350        C351   1.395       .  A
C351        H357   1.082       .  S
N352        C353   1.355       .  A
N352        H360   1.045       .  S
C353        C354   1.399       .  A
C354        H358   1.083       .  S
C361        C366   1.385       .  A
C361        C362   1.403       .  A
C361        N367   1.343       .  A
C362        C363   1.402       .  A
C362        H373   1.082       .  S
C363        C372   1.376       .  A
C363        C364   1.385       .  A
C364        C365   1.402       .  A
C364        N370   1.343       .  A
C365        C366   1.402       .  A
C365        H374   1.082       .  S
C366        C369   1.376       .  A
N367        C368   1.356       .  A
N367        H377   1.045       .  S
C368        C369   1.396       .  A
C369        H375   1.082       .  S
N370        C371   1.355       .  A
N370        H378   1.045       .  S
C371        C372   1.396       .  A
C372        H376   1.083       .  S
C379        C384   1.385       .  A
C379        C380   1.402       .  A
C379        N385   1.342       .  A
C380        C381   1.402       .  A
C380        H391   1.082       .  S
C381        C390   1.377       .  A
C381        C382   1.385       .  A
C382        C383   1.402       .  A
C382        N388   1.342       .  A
C383        C384   1.401       .  A
C383        H392   1.082       .  S
C384        C387   1.376       .  A
N385        C386   1.355       .  A
N385        H395   1.045       .  S
C386        C387   1.395       .  A
C387        H393   1.083       .  S
N388        C389   1.355       .  A
N388        H396   1.045       .  S
C389        C390   1.396       .  A
C390        H394   1.083       .  S
C397        C402   1.385       .  A
C397        C398   1.402       .  A
C397        N403   1.344       .  A
C398        C399   1.402       .  A
C398        H409   1.082       .  S
C399        C408   1.377       .  A
C399        C400   1.384       .  A
C400        C401   1.404       .  A
C400        N406   1.345       .  A
C401        C402   1.404       .  A
C401        H410   1.082       .  S
C402        C405   1.377       .  A
N403        C404   1.356       .  A
N403        H413   1.045       .  S
C404        C405   1.396       .  A
C405        H411   1.082       .  S
N406        C407   1.357       .  A
N406        H414   1.045       .  S
C407        C408   1.396       .  A
C408        H412   1.082       .  S
C415        C420   1.384       .  A
C415        C416   1.404       .  A
C415        N421   1.345       .  A
C416        C417   1.404       .  A
C416        H427   1.082       .  S
C417        C426   1.378       .  A
C417        C418   1.384       .  A
C418        C419   1.405       .  A
C418        N424   1.346       .  A
C419        C420   1.404       .  A
C419        H428   1.082       .  S
C420        C423   1.378       .  A
N421        C422   1.356       .  A
N421        H431   1.045       .  S
C422        C423   1.396       .  A
C423        H429   1.082       .  S
N424        C425   1.357       .  A
N424        H432   1.045       .  S
C425        C426   1.397       .  A
C426        H430   1.082       .  S
C433        C438   1.384   1_554  A
C433        C434   1.404       .  A
C433        N439   1.344       .  A
C434        C435   1.403       .  A
C434        H445   1.082       .  S
C435        C444   1.378       .  A
C435        C436   1.385   1_554  A
C436        C437   1.402       .  A
C436        N442   1.342       .  A
C437        C438   1.402       .  A
C437        H446   1.082       .  S
C438        C441   1.378       .  A
N439        C440   1.356   1_554  A
N439        H449   1.045       .  S
C440        C441   1.396       .  A
C441        H447   1.082       .  S
N442        C443   1.355   1_556  A
N442        H450   1.045       .  S
C443        C444   1.396       .  A
C444        H448   1.083       .  S
C451        C456   1.384   1_554  A
C451        C452   1.405       .  A
C451        N457   1.344       .  A
C452        C453   1.404       .  A
C452        H463   1.082       .  S
C453        C462   1.380       .  A
C453        C454   1.384   1_554  A
C454        C455   1.403       .  A
C454        N460   1.343       .  A
C455        C456   1.402       .  A
C455        H464   1.082       .  S
C456        C459   1.378       .  A
N457        C458   1.357   1_554  A
N457        H467   1.045       .  S
C458        C459   1.395       .  A
C459        H465   1.082       .  S
N460        C461   1.356   1_556  A
N460        H468   1.045       .  S
C461        C462   1.397       .  A
C462        H466   1.082       .  S
C469        C474   1.384       .  A
C469        C470   1.404       .  A
C469        N475   1.343       .  A
C470        C471   1.403       .  A
C470        H481   1.083       .  S
C471        C480   1.377       .  A
C471        C472   1.385       .  A
C472        C473   1.401       .  A
C472        N478   1.342       .  A
C473        C474   1.400       .  A
C473        H482   1.082       .  S
C474        C477   1.375       .  A
N475        C476   1.357       .  A
N475        H485   1.045       .  S
C476        C477   1.393       .  A
C477        H483   1.082       .  S
N478        C479   1.355       .  A
N478        H486   1.045       .  S
C479        C480   1.396       .  A
C480        H484   1.082       .  S
C487        C492   1.385       .  A
C487        C488   1.402       .  A
C487        N493   1.343       .  A
C488        C489   1.402       .  A
C488        H499   1.082       .  S
C489        C498   1.375       .  A
C489        C490   1.385       .  A
C490        C491   1.403       .  A
C490        N496   1.345       .  A
C491        C492   1.403       .  A
C491        H500   1.082       .  S
C492        C495   1.376       .  A
N493        C494   1.355       .  A
N493        H503   1.045       .  S
C494        C495   1.395       .  A
C495        H501   1.083       .  S
N496        C497   1.356       .  A
N496        H504   1.045       .  S
C497        C498   1.395       .  A
C498        H502   1.082       .  S
C505        C510   1.385       .  A
C505        C506   1.402       .  A
C505        N511   1.342       .  A
C506        C507   1.400       .  A
C506        H517   1.082       .  S
C507        C516   1.376       .  A
C507        C508   1.385       .  A
C508        C509   1.403       .  A
C508        N514   1.342       .  A
C509        C510   1.402       .  A
C509        H518   1.082       .  S
C510        C513   1.378       .  A
N511        C512   1.356       .  A
N511        H521   1.045       .  S
C512        C513   1.396       .  A
C513        H519   1.082       .  S
N514        C515   1.355       .  A
N514        H522   1.045       .  S
C515        C516   1.394       .  A
C516        H520   1.083       .  S
C523        C528   1.385       .  A
C523        C524   1.404       .  A
C523        N529   1.344       .  A
C524        C525   1.403       .  A
C524        H535   1.082       .  S
C525        C534   1.378       .  A
C525        C526   1.384       .  A
C526        C527   1.404   1_565  A
C526        N532   1.345   1_565  A
C527        C528   1.403   1_545  A
C527        H536   1.082       .  S
C528        C531   1.377       .  A
N529        C530   1.356       .  A
N529        H539   1.045       .  S
C530        C531   1.396       .  A
C531        H537   1.082   1_565  S
N532        C533   1.357   1_545  A
N532        H540   1.045       .  S
C533        C534   1.396       .  A
C534        H538   1.082       .  S
C541        C546   1.384       .  A
C541        C542   1.406       .  A
C541        N547   1.345       .  A
C542        C543   1.405       .  A
C542        H553   1.082       .  S
C543        C552   1.381       .  A
C543        C544   1.384       .  A
C544        C545   1.405       .  A
C544        N550   1.345   1_565  A
C545        C546   1.404       .  A
C545        H554   1.082   1_565  S
C546        C549   1.380       .  A
N547        C548   1.357       .  A
N547        H557   1.045       .  S
C548        C549   1.397       .  A
C549        H555   1.082   1_565  S
N550        C551   1.357   1_545  A
N550        H558   1.045       .  S
C551        C552   1.398       .  A
C552        H556   1.082       .  S
C559        C564   1.385       .  A
C559        C560   1.401       .  A
C559        N565   1.344       .  A
C560        C561   1.401       .  A
C560        H571   1.082       .  S
C561        C570   1.374       .  A
C561        C562   1.385       .  A
C562        C563   1.402   1_565  A
C562        N568   1.344       .  A
C563        C564   1.403   1_545  A
C563        H572   1.082       .  S
C564        C567   1.374   1_565  A
N565        C566   1.355       .  A
N565        H575   1.045       .  S
C566        C567   1.395   1_565  A
C567        H573   1.082       .  S
N568        C569   1.356       .  A
N568        H576   1.045   1_565  S
C569        C570   1.395       .  A
C570        H574   1.082       .  S
C577        C582   1.385       .  A
C577        C578   1.403   1_455  A
C577        N583   1.344       .  A
C578        C579   1.402       .  A
C578        H589   1.082   1_655  S
C579        C588   1.376       .  A
C579        C580   1.385       .  A
C580        C581   1.402       .  A
C580        N586   1.343       .  A
C581        C582   1.402   1_655  A
C581        H590   1.082       .  S
C582        C585   1.375       .  A
N583        C584   1.355       .  A
N583        H593   1.045       .  S
C584        C585   1.396       .  A
C585        H591   1.083       .  S
N586        C587   1.356       .  A
N586        H594   1.045       .  S
C587        C588   1.395       .  A
C588        H592   1.082       .  S
C595        C600   1.385   1_455  A
C595        C596   1.400       .  A
C595        N601   1.342   1_455  A
C596        C597   1.400       .  A
C596        H607   1.082       .  S
C597        C606   1.374       .  A
C597        C598   1.385       .  A
C598        C599   1.404   1_455  A
C598        N604   1.344       .  A
C599        C600   1.404       .  A
C599        H608   1.082       .  S
C600        C603   1.378       .  A
N601        C602   1.355       .  A
N601        H611   1.045   1_655  S
C602        C603   1.397       .  A
C603        H609   1.082       .  S
N604        C605   1.357       .  A
N604        H612   1.045       .  S
C605        C606   1.394       .  A
C606        H610   1.082       .  S
C613        C618   1.385   1_655  A
C613        C614   1.402       .  A
C613        N619   1.342       .  A
C614        C615   1.402       .  A
C614        H625   1.083       .  S
C615        C624   1.376       .  A
C615        C616   1.385       .  A
C616        C617   1.401   1_655  A
C616        N622   1.342   1_655  A
C617        C618   1.400       .  A
C617        H626   1.082       .  S
C618        C621   1.375       .  A
N619        C620   1.356       .  A
N619        H629   1.045       .  S
C620        C621   1.394   1_655  A
C621        H627   1.082       .  S
N622        C623   1.354   1_455  A
N622        H630   1.045       .  S
C623        C624   1.395       .  A
C624        H628   1.083       .  S
C631        C636   1.385       .  A
C631        C632   1.400       .  A
C631        N637   1.341       .  A
C632        C633   1.400       .  A
C632        H643   1.082       .  S
C633        C642   1.374       .  A
C633        C634   1.384       .  A
C634        C635   1.405       .  A
C634        N640   1.345       .  A
C635        C636   1.405       .  A
C635        H644   1.082   1_455  S
C636        C639   1.378       .  A
N637        C638   1.354       .  A
N637        H647   1.045       .  S
C638        C639   1.397       .  A
C639        H645   1.083   1_455  S
N640        C641   1.358       .  A
N640        H648   1.045   1_455  S
C641        C642   1.394       .  A
C642        H646   1.082       .  S
