geometry optimzed in LAMMPS
_audit_creation_date              2020-11-30 
_audit_creation_method            'lammps2cif' 
_symmetry_space_group_name_H-M    'P1' 
_symmetry_Int_Tables_number       1 
_symmetry_cell_setting            triclinic 
loop_ 
_symmetry_equiv_pos_as_xyz 
  x,y,z 
_cell_length_a                    37.35140734 
_cell_length_b                    38.2760594840988 
_cell_length_c                    37.21059236760433 
_cell_angle_alpha                 90.90177631412317 
_cell_angle_beta                  91.46680881484497 
_cell_angle_gamma                 89.91553244588845 
loop_ 
_atom_site_label 
_atom_site_type_symbol 
_atom_site_fract_x 
_atom_site_fract_y 
_atom_site_fract_z 
_atom_site_charge 
N1          N  0.31808272  0.20769007  0.21131556    -0.08200
N2          N  0.34338856  0.18486326  0.20357500    -0.60300
N3          N  0.29178375  0.28688727  0.18469112    -0.07900
N4          N  0.29695662  0.31138843  0.16086177    -0.62400
N5          N  0.31696202  0.28811550  0.20997070    -0.07500
N6          N  0.33977070  0.31349647  0.20393872    -0.60300
N7          N  0.29249569  0.20655019  0.18641964    -0.07200
N8          N  0.29978165  0.18289022  0.16155528    -0.62800
C9          C  0.33120049  0.16889784  0.17291376     0.94000
C10         C  0.32649244  0.32834728  0.17366861     0.93800
N11         N  0.18358148  0.28679487  0.20815999    -0.08400
N12         N  0.16048602  0.31225760  0.20184208    -0.60900
N13         N  0.20912736  0.20568485  0.18526702    -0.06500
N14         N  0.20106341  0.18187437  0.16040389    -0.62100
N15         N  0.18477583  0.20621101  0.21005910    -0.08400
N16         N  0.15975518  0.18281456  0.20260456    -0.61200
N17         N  0.20825251  0.28623112  0.18361846    -0.06100
N18         N  0.20248160  0.31122072  0.16011656    -0.62200
Mn19       Mn  0.25039718  0.24624962  0.18388350     1.18400
C20         C  0.17308960  0.32787010  0.17227375     0.96100
C21         C  0.17059989  0.16721441  0.17197075     0.96700
N22         N  0.31807027  0.29136031  0.29387774    -0.08400
N23         N  0.34130178  0.31694889  0.29872376    -0.64700
N24         N  0.29439058  0.21224452  0.32011143    -0.07200
N25         N  0.29982795  0.18770993  0.34390354    -0.65400
N26         N  0.31951979  0.21151007  0.29601701    -0.07900
N27         N  0.34312397  0.18670462  0.30326494    -0.65000
N28         N  0.29407062  0.29220656  0.31916236    -0.06800
N29         N  0.30099720  0.31818856  0.34223616    -0.65700
Mn30       Mn  0.31934324  0.24958170  0.25280031     1.10700
C31         C  0.33034945  0.33354816  0.32879116     0.97300
C32         C  0.33012233  0.17205557  0.33302708     0.97400
N33         N  0.18599188  0.20858817  0.29364939    -0.07900
N34         N  0.16204994  0.18454455  0.30083951    -0.63300
N35         N  0.20894180  0.29047562  0.31742166    -0.07300
N36         N  0.20125271  0.31514584  0.34110647    -0.60000
N37         N  0.18377022  0.28859263  0.29213490    -0.08600
N38         N  0.15843092  0.31179977  0.29804346    -0.62900
N39         N  0.21086017  0.21017351  0.31924180    -0.07600
N40         N  0.20414830  0.18724493  0.34433906    -0.60100
Mn41       Mn  0.18347019  0.24751253  0.25094414     1.20200
Mn42       Mn  0.25208516  0.25148315  0.32020682     1.10100
Cl43       Cl  0.25134460  0.24878166  0.25200706    -0.88000
C44         C  0.17408523  0.17073073  0.33213655     0.94300
C45         C  0.17005799  0.32867155  0.32822857     0.94100
N46         N  0.45687816  0.21849689  0.06372571    -0.08200
N47         N  0.43402221  0.21032843  0.08869783    -0.60300
N48         N  0.03798611  0.19505996  0.03852418    -0.07900
N49         N  0.06066045  0.16970077  0.04592244    -0.62400
N50         N  0.03856728  0.21897373  0.06415776    -0.07500
N51         N  0.06177887  0.21024538  0.08984583    -0.60300
N52         N  0.45687094  0.19428502  0.03834764    -0.07200
N53         N  0.43412968  0.16919635  0.04534120    -0.62800
C54         C  0.41939569  0.17993079  0.07634577     0.94000
C55         C  0.07595063  0.17984687  0.07755091     0.93800
N56         N  0.03557149  0.21777627  0.42959049    -0.08400
N57         N  0.06017460  0.20990949  0.40584429    -0.62100
N58         N  0.45534280  0.19246349  0.45520482    -0.06500
N59         N  0.43382898  0.16582129  0.44931497    -0.62100
N60         N  0.45352671  0.21452156  0.42851763    -0.08400
N61         N  0.43079209  0.20253198  0.40317242    -0.61200
N62         N  0.03654848  0.19493269  0.45559481    -0.06100
N63         N  0.06168494  0.17141506  0.45044046    -0.62200
Mn64       Mn  0.49667461  0.19405270  0.49679362     1.18400
C65         C  0.07680765  0.18137982  0.41978457     0.96100
C66         C  0.41857515  0.17221317  0.41702645     0.96700
N67         N  0.03766750  0.30133480  0.06380220    -0.08400
N68         N  0.06221489  0.30703346  0.08901602    -0.64700
N69         N  0.45571684  0.32637889  0.04142655    -0.07200
N70         N  0.43178214  0.35020019  0.05094978    -0.65400
N71         N  0.45665036  0.30080562  0.06464239    -0.07900
N72         N  0.43334426  0.30625790  0.08994293    -0.65000
N73         N  0.03714947  0.32682117  0.04040143    -0.06800
N74         N  0.06128196  0.35089005  0.04988910    -0.65700
Mn75       Mn  0.49747914  0.26005419  0.06473399     1.10700
C76         C  0.07679705  0.33776314  0.08017002     0.97300
C77         C  0.41794854  0.33691951  0.08116367     0.97400
N78         N  0.45101265  0.29934160  0.43083794    -0.07900
N79         N  0.42704675  0.30739324  0.40559837    -0.63300
N80         N  0.03342139  0.32639804  0.45320140    -0.07300
N81         N  0.05676295  0.35064281  0.44409929    -0.60000
N82         N  0.03246012  0.30090261  0.42893971    -0.08600
N83         N  0.05528511  0.30696745  0.40344821    -0.62900
N84         N  0.45202653  0.32399031  0.45605102    -0.07600
N85         N  0.42868323  0.34879562  0.44845658    -0.60100
Mn86       Mn  0.49290152  0.25833708  0.42826560     1.20200
Mn87       Mn  0.49475987  0.32714056  0.49767756     1.10100
Cl88       Cl  0.49546549  0.26003413  0.49680218    -0.88000
C89         C  0.41265700  0.33781974  0.41742914     0.94300
C90         C  0.07022655  0.33791556  0.41301376     0.94100
C91         C  0.34974137  0.09994438  0.39897893     0.84400
C92         C  0.37360959  0.12545883  0.42055345    -0.55800
C93         C  0.39348385  0.14695623  0.39983107     0.07300
C94         C  0.38802003  0.14026832  0.35902635     0.18300
C95         C  0.32741271  0.12296997  0.37401231    -0.56500
C96         C  0.34727785  0.14410492  0.35324176     0.07400
C97         C  0.37511752  0.07988581  0.37456890    -0.56100
C98         C  0.39517743  0.10073051  0.35355476     0.08000
H99         H  0.37451769  0.12658429  0.44976515     0.12500
H100        H  0.40427913  0.15745023  0.34205956    -0.01700
H101        H  0.29832221  0.12376440  0.37397122     0.12800
H102        H  0.37691616  0.05154545  0.37375713     0.12600
N103        N  0.17831612  0.04278970  0.45839806    -0.08200
N104        N  0.15426750  0.06731615  0.45184275    -0.60300
N105        N  0.20235379  0.46248248  0.43430336    -0.07900
N106        N  0.19567537  0.43881021  0.40912507    -0.62400
N107        N  0.17695253  0.46276143  0.45816453    -0.07500
N108        N  0.15191541  0.43946606  0.44914060    -0.60300
N109        N  0.20252389  0.04228607  0.43328041    -0.07200
N110        N  0.19491499  0.06615454  0.40873162    -0.62800
C111        C  0.16482760  0.08175741  0.42088779     0.94000
C112        C  0.16435004  0.42461829  0.41860206     0.93800
N113        N  0.31214000  0.46015549  0.46017483    -0.08400
N114        N  0.33772588  0.43807482  0.45098349    -0.60900
N115        N  0.28814559  0.04037501  0.43500051    -0.06500
N116        N  0.29586196  0.06286789  0.40988978    -0.62100
N117        N  0.31374905  0.03988782  0.45992621    -0.08400
N118        N  0.33937968  0.06205624  0.45229309    -0.61200
N119        N  0.28673037  0.46059445  0.43497865    -0.06100
N120        N  0.29457577  0.43873468  0.40849698    -0.62200
Mn121      Mn  0.24492769  0.00154313  0.43374512     1.18400
C122        C  0.32596907  0.42411399  0.41914170     0.96100
C123        C  0.32751007  0.07668363  0.42139272     0.96700
N124        N  0.17894991  0.46415600  0.04498729    -0.08400
N125        N  0.15503961  0.44011487  0.05313704    -0.64700
N126        N  0.20422627  0.04487066  0.06913545    -0.07200
N127        N  0.19570739  0.06867643  0.09373761    -0.65400
N128        N  0.17965021  0.04391933  0.04311247    -0.07900
N129        N  0.15456712  0.06731654  0.04893858    -0.65000
N130        N  0.20498649  0.46514081  0.06956975    -0.06800
N131        N  0.19978729  0.44157295  0.09428163    -0.65700
Mn132      Mn  0.17760041  0.00319906  0.00120144     1.10700
C133        C  0.16871536  0.42611123  0.08384748     0.97300
C134        C  0.16481810  0.08257887  0.08040678     0.97400
N135        N  0.31478422  0.04273165  0.04441630    -0.07900
N136        N  0.33987881  0.06645791  0.05003947    -0.63300
N137        N  0.28929516  0.46450119  0.07085487    -0.07300
N138        N  0.29581164  0.44138255  0.09604211    -0.60000
N139        N  0.31418827  0.46302585  0.04647353    -0.08600
N140        N  0.33860448  0.43923594  0.05503230    -0.62900
N141        N  0.29097158  0.04441074  0.06990284    -0.07600
N142        N  0.30004129  0.06903044  0.09392353    -0.60100
Mn143      Mn  0.31442949  0.00123035  0.00279675     1.20200
Mn144      Mn  0.24734937  0.00500940  0.07075264     1.10100
Cl145      Cl  0.24606278  0.00272567  0.00214439    -0.88000
C146        C  0.33045768  0.08271799  0.08082813     0.94300
C147        C  0.32650198  0.42581184  0.08587380     0.94100
C148        C  0.14693853  0.35269187  0.34946088     0.84400
C149        C  0.12499621  0.37841966  0.32693744    -0.55800
C150        C  0.10345836  0.39992225  0.34660001     0.07300
C151        C  0.10627368  0.39350980  0.38780474     0.18300
C152        C  0.16774702  0.37534780  0.37658426    -0.56500
C153        C  0.14691666  0.39696692  0.39662885     0.07400
C154        C  0.11975757  0.33307317  0.37121951    -0.56100
C155        C  0.09846786  0.35397303  0.39163559     0.08000
H156        H  0.12679207  0.37984726  0.29788673     0.12500
H157        H  0.08910920  0.41106422  0.40403505    -0.01700
H158        H  0.19683858  0.37550314  0.37861554     0.12800
H159        H  0.11766206  0.30473801  0.37056380     0.12600
N160        N  0.45996761  0.04827660  0.31338527    -0.08200
N161        N  0.45166474  0.07045176  0.33946146    -0.60300
N162        N  0.43372995  0.46846237  0.28850918    -0.07900
N163        N  0.40825851  0.44589362  0.29535971    -0.62400
N164        N  0.45882148  0.46819645  0.31395266    -0.07500
N165        N  0.45071958  0.44545553  0.33880521    -0.60300
N166        N  0.43489535  0.04836994  0.28786171    -0.07200
N167        N  0.40915804  0.07054633  0.29633776    -0.62800
C168        C  0.42037696  0.08493593  0.32813883     0.94000
C169        C  0.41950575  0.43118671  0.32639045     0.93800
N170        N  0.45645930  0.46339988  0.17879377    -0.08400
N171        N  0.44689050  0.43877869  0.15489637    -0.60900
N172        N  0.43324887  0.04489234  0.20195252    -0.06500
N173        N  0.40868334  0.06855218  0.19355325    -0.62100
N174        N  0.45806111  0.04352866  0.17748181    -0.08400
N175        N  0.45130397  0.06669123  0.15235228    -0.61200
N176        N  0.43283848  0.46530969  0.20445112    -0.06100
N177        N  0.40748094  0.44182543  0.19911361    -0.62200
Mn178      Mn  0.43311234  0.00697699  0.24566650     1.18400
C179        C  0.41640345  0.42539423  0.16830148     0.96100
C180        C  0.42054348  0.08207575  0.16269383     0.96700
N181        N  0.04476177  0.46705481  0.31581701    -0.08400
N182        N  0.05267403  0.44353391  0.34062858    -0.64700
N183        N  0.07016292  0.04650791  0.29081297    -0.07200
N184        N  0.09530265  0.06968612  0.30009318    -0.65400
N185        N  0.04469423  0.04683206  0.31465588    -0.07900
N186        N  0.05149450  0.07041594  0.33998611    -0.65000
N187        N  0.06895128  0.46653568  0.29066157    -0.06800
N188        N  0.09329464  0.44240868  0.29748124    -0.65700
Mn189      Mn  0.00205972  0.00746147  0.31515687     1.10700
C190        C  0.08294700  0.42820931  0.32860395     0.97300
C191        C  0.08294869  0.08455332  0.33072234     0.97400
N192        N  0.04269810  0.04315511  0.17873097    -0.07900
N193        N  0.04838890  0.06640788  0.15377503    -0.63300
N194        N  0.06831577  0.46448889  0.20544680    -0.07300
N195        N  0.09370942  0.44134022  0.19956003    -0.60000
N196        N  0.04379966  0.46325378  0.17933215    -0.08600
N197        N  0.05271072  0.43950790  0.15471621    -0.62900
N198        N  0.06850273  0.04429541  0.20357535    -0.07600
N199        N  0.09270087  0.06801615  0.19539196    -0.60100
Mn200      Mn  0.00024700  0.00306804  0.17765668     1.20200
Mn201      Mn  0.06976350  0.00565897  0.24759738     1.10100
Cl202      Cl  0.00135152  0.00579585  0.24648703    -0.88000
C203        C  0.07952828  0.08173287  0.16437736     0.94300
C204        C  0.08380229  0.42587182  0.16801280     0.94100
C205        C  0.34761375  0.35268978  0.15143159     0.84400
C206        C  0.37358583  0.37659058  0.17265201    -0.55800
C207        C  0.39356801  0.39768745  0.15161846     0.07300
C208        C  0.38541218  0.39273383  0.11077526     0.18300
C209        C  0.32488519  0.37737665  0.12854526    -0.56500
C210        C  0.34436944  0.39840229  0.10714297     0.07400
C211        C  0.37069520  0.33265668  0.12508367    -0.56100
C212        C  0.39067187  0.35320058  0.10380495     0.08000
H213        H  0.37530854  0.37746407  0.20185013     0.12500
H214        H  0.40147495  0.40988627  0.09360205    -0.01700
H215        H  0.29585653  0.37854241  0.12961893     0.12800
H216        H  0.37198146  0.30427470  0.12420412     0.12600
C217        C  0.09855098  0.15589177  0.09983294     0.84400
C218        C  0.12394996  0.17464782  0.12615444    -0.55800
C219        C  0.14439760  0.15264877  0.14643589     0.07300
C220        C  0.13761197  0.11359082  0.13881848     0.18300
C221        C  0.12240211  0.13173276  0.07772026    -0.56500
C222        C  0.14296155  0.10958341  0.09791707     0.07400
C223        C  0.07656311  0.13133236  0.12261795    -0.56100
C224        C  0.09674928  0.10912567  0.14321222     0.08000
H225        H  0.12600749  0.20293160  0.12839476     0.12500
H226        H  0.15431133  0.09564635  0.15539407    -0.01700
H227        H  0.12264201  0.13174935  0.04851637     0.12800
H228        H  0.04745941  0.13115635  0.12202017     0.12600
C229        C  0.39773436  0.15634567  0.09878902     0.84400
C230        C  0.42107609  0.13124899  0.12069497    -0.55800
C231        C  0.40218300  0.10938407  0.14169316     0.07300
C232        C  0.36111449  0.11462823  0.13866760     0.18300
C233        C  0.37173539  0.13275171  0.07723860    -0.56500
C234        C  0.35251541  0.11071006  0.09787134     0.07400
C235        C  0.37485335  0.17547421  0.12606841    -0.56100
C236        C  0.35576975  0.15383914  0.14699258     0.08000
H237        H  0.45010436  0.13060256  0.11938670     0.12500
H238        H  0.34553257  0.09686322  0.15564505    -0.01700
H239        H  0.36964724  0.13258157  0.04805316     0.12800
H240        H  0.37336464  0.20378203  0.12839726     0.12600
C241        C  0.15129855  0.35279540  0.14986690     0.84400
C242        C  0.17278133  0.37714755  0.12637972    -0.55800
C243        C  0.15206671  0.39850916  0.10517765     0.07300
C244        C  0.11126826  0.39342704  0.10967637     0.18300
C245        C  0.12712129  0.37716919  0.17137820    -0.56500
C246        C  0.10598023  0.39853385  0.15071472     0.07400
C247        C  0.12625424  0.33316304  0.12392108    -0.56100
C248        C  0.10521113  0.35395464  0.10280799     0.08000
H249        H  0.20186870  0.37793983  0.12702069     0.12500
H250        H  0.09419482  0.41075005  0.09277230    -0.01700
H251        H  0.12719208  0.37790595  0.20058825     0.12800
H252        H  0.12468785  0.30478970  0.12302843     0.12600
C253        C  0.10109847  0.15779639  0.39914867     0.84400
C254        C  0.08006284  0.13445906  0.37265352    -0.55800
C255        C  0.10060864  0.11223918  0.35292876     0.07300
C256        C  0.14130595  0.11581803  0.36153606     0.18300
C257        C  0.12332705  0.13237251  0.42214506    -0.56500
C258        C  0.14448597  0.11019681  0.40277249     0.07400
C259        C  0.12808697  0.17684678  0.37681085    -0.56100
C260        C  0.14908338  0.15522919  0.35698214     0.08000
H261        H  0.05097239  0.13460789  0.37068072     0.12500
H262        H  0.15828709  0.09801709  0.34538417    -0.01700
H263        H  0.12188755  0.13148634  0.45123714     0.12800
H264        H  0.12991951  0.20516133  0.37595636     0.12600
C265        C  0.39628374  0.40804668  0.34808081     0.84400
C266        C  0.41735965  0.38357791  0.37276093    -0.55800
C267        C  0.39627399  0.36282598  0.39277233     0.07300
C268        C  0.35577136  0.36849335  0.38662446     0.18300
C269        C  0.37158595  0.38382431  0.32561633    -0.56500
C270        C  0.35044182  0.36290350  0.34564069     0.07400
C271        C  0.37154274  0.42856590  0.37283222    -0.56100
C272        C  0.35044162  0.40808663  0.39318054     0.08000
H273        H  0.44643392  0.38247941  0.37419874     0.12500
H274        H  0.33884196  0.35156490  0.40320112    -0.01700
H275        H  0.37210526  0.38209524  0.29645780     0.12800
H276        H  0.37103930  0.45693655  0.37446241     0.12600
N277        N  0.31808264  0.20769006  0.71131546    -0.08200
N278        N  0.34338853  0.18486332  0.70357506    -0.60300
N279        N  0.29178368  0.28688722  0.68469102    -0.07900
N280        N  0.29695646  0.31138840  0.66086171    -0.62400
N281        N  0.31696196  0.28811552  0.70997060    -0.07500
N282        N  0.33977061  0.31349653  0.70393868    -0.60300
N283        N  0.29249564  0.20655011  0.68641947    -0.07200
N284        N  0.29978159  0.18289014  0.66155512    -0.62800
C285        C  0.33120040  0.16889788  0.67291380     0.94000
C286        C  0.32649233  0.32834728  0.67366855     0.93800
N287        N  0.18358150  0.28679495  0.70816016    -0.08400
N288        N  0.16048593  0.31225754  0.70184205    -0.60900
N289        N  0.20912733  0.20568482  0.68526702    -0.06500
N290        N  0.20106340  0.18187429  0.66040392    -0.62100
N291        N  0.18477583  0.20621091  0.71005913    -0.08400
N292        N  0.15975519  0.18281444  0.70260459    -0.61200
N293        N  0.20825228  0.28623095  0.68361838    -0.06100
N294        N  0.20248160  0.31122069  0.66011656    -0.62200
Mn295      Mn  0.25039716  0.24624963  0.68388345     1.18400
C296        C  0.17308964  0.32787012  0.67227378     0.96100
C297        C  0.17059985  0.16721440  0.67197071     0.96700
N298        N  0.31807025  0.29136040  0.79387763    -0.08400
N299        N  0.34130180  0.31694898  0.79872382    -0.64700
N300        N  0.29439054  0.21224454  0.82011130    -0.07200
N301        N  0.29982782  0.18770997  0.84390347    -0.65400
N302        N  0.31951980  0.21151017  0.79601694    -0.07900
N303        N  0.34312387  0.18670461  0.80326478    -0.65000
N304        N  0.29407064  0.29220651  0.81916224    -0.06800
N305        N  0.30099722  0.31818844  0.84223614    -0.65700
Mn306      Mn  0.31934314  0.24958171  0.75280022     1.10700
C307        C  0.33034947  0.33354814  0.82879122     0.97300
C308        C  0.33012226  0.17205568  0.83302704     0.97400
N309        N  0.18599191  0.20858816  0.79364940    -0.07900
N310        N  0.16205001  0.18454452  0.80083957    -0.63300
N311        N  0.20894186  0.29047566  0.81742154    -0.07300
N312        N  0.20125265  0.31514582  0.84110639    -0.60000
N313        N  0.18377015  0.28859253  0.79213498    -0.08600
N314        N  0.15843085  0.31179969  0.79804370    -0.62900
N315        N  0.21086023  0.21017352  0.81924175    -0.07600
N316        N  0.20414818  0.18724509  0.84433909    -0.60100
Mn317      Mn  0.18347017  0.24751248  0.75094420     1.20200
Mn318      Mn  0.25208518  0.25148318  0.82020675     1.10100
Cl319      Cl  0.25134451  0.24878168  0.75200700    -0.88000
C320        C  0.17408530  0.17073067  0.83213658     0.94300
C321        C  0.17005797  0.32867165  0.82822862     0.94100
N322        N  0.45687809  0.21849699  0.56372578    -0.08200
N323        N  0.43402214  0.21032840  0.58869785    -0.60300
N324        N  0.03798609  0.19506004  0.53852418    -0.07900
N325        N  0.06066041  0.16970079  0.54592247    -0.62400
N326        N  0.03856715  0.21897375  0.56415780    -0.07500
N327        N  0.06177880  0.21024538  0.58984578    -0.60300
N328        N  0.45687086  0.19428520  0.53834760    -0.07200
N329        N  0.43412968  0.16919648  0.54534111    -0.62800
C330        C  0.41939585  0.17993066  0.57634584     0.94000
C331        C  0.07595062  0.17984685  0.57755090     0.93800
N332        N  0.03557161  0.21777634  0.92959055    -0.08400
N333        N  0.06017461  0.20990947  0.90584422    -0.62100
N334        N  0.45534280  0.19246345  0.95520490    -0.06500
N335        N  0.43382907  0.16582117  0.94931484    -0.62100
N336        N  0.45352680  0.21452154  0.92851777    -0.08400
N337        N  0.43079216  0.20253198  0.90317250    -0.61200
N338        N  0.03654857  0.19493274  0.95559485    -0.06100
N339        N  0.06168500  0.17141512  0.95044043    -0.62200
Mn340      Mn  0.49667468  0.19405267  0.99679362     1.18400
C341        C  0.07680770  0.18137986  0.91978456     0.96100
C342        C  0.41857511  0.17221317  0.91702641     0.96700
N343        N  0.03766747  0.30133479  0.56380222    -0.08400
N344        N  0.06221481  0.30703347  0.58901608    -0.64700
N345        N  0.45571678  0.32637889  0.54142662    -0.07200
N346        N  0.43178212  0.35020021  0.55094998    -0.65400
N347        N  0.45665035  0.30080558  0.56464242    -0.07900
N348        N  0.43334432  0.30625789  0.58994303    -0.65000
N349        N  0.03714936  0.32682120  0.54040141    -0.06800
N350        N  0.06128176  0.35089008  0.54988911    -0.65700
Mn351      Mn  0.49747919  0.26005422  0.56473403     1.10700
C352        C  0.07679701  0.33776309  0.58016998     0.97300
C353        C  0.41794847  0.33691947  0.58116379     0.97400
N354        N  0.45101275  0.29934175  0.93083794    -0.07900
N355        N  0.42704676  0.30739329  0.90559839    -0.63300
N356        N  0.03342143  0.32639800  0.95320143    -0.07300
N357        N  0.05676295  0.35064287  0.94409935    -0.60000
N358        N  0.03246016  0.30090258  0.92893976    -0.08600
N359        N  0.05528505  0.30696754  0.90344816    -0.62900
N360        N  0.45202644  0.32399029  0.95605115    -0.07600
N361        N  0.42868330  0.34879572  0.94845660    -0.60100
Mn362      Mn  0.49290162  0.25833716  0.92826567     1.20200
Mn363      Mn  0.49475984  0.32714054  0.99767759     1.10100
Cl364      Cl  0.49546549  0.26003413  0.99680219    -0.88000
C365        C  0.41265697  0.33781973  0.91742923     0.94300
C366        C  0.07022662  0.33791556  0.91301388     0.94100
C367        C  0.34974126  0.09994446  0.89897894     0.84400
C368        C  0.37360961  0.12545878  0.92055345    -0.55800
C369        C  0.39348385  0.14695616  0.89983102     0.07300
C370        C  0.38801996  0.14026836  0.85902636     0.18300
C371        C  0.32741269  0.12296999  0.87401223    -0.56500
C372        C  0.34727783  0.14410501  0.85324180     0.07400
C373        C  0.37511734  0.07988582  0.87456893    -0.56100
C374        C  0.39517726  0.10073054  0.85355471     0.08000
H375        H  0.37451765  0.12658427  0.94976514     0.12500
H376        H  0.40427884  0.15745055  0.84205966    -0.01700
H377        H  0.29832218  0.12376491  0.87397158     0.12800
H378        H  0.37691569  0.05154551  0.87375697     0.12600
N379        N  0.17831604  0.04278958  0.95839812    -0.08200
N380        N  0.15426748  0.06731605  0.95184267    -0.60300
N381        N  0.20235380  0.46248249  0.93430347    -0.07900
N382        N  0.19567545  0.43881015  0.90912525    -0.62400
N383        N  0.17695253  0.46276139  0.95816462    -0.07500
N384        N  0.15191538  0.43946603  0.94914068    -0.60300
N385        N  0.20252389  0.04228613  0.93328061    -0.07200
N386        N  0.19491497  0.06615456  0.90873171    -0.62800
C387        C  0.16482765  0.08175749  0.92088785     0.94000
C388        C  0.16435010  0.42461825  0.91860222     0.93800
N389        N  0.31214002  0.46015552  0.96017492    -0.08400
N390        N  0.33772583  0.43807482  0.95098353    -0.60900
N391        N  0.28814559  0.04037508  0.93500064    -0.06500
N392        N  0.29586193  0.06286790  0.90988981    -0.62100
N393        N  0.31374907  0.03988788  0.95992631    -0.08400
N394        N  0.33937969  0.06205629  0.95229306    -0.61200
N395        N  0.28673039  0.46059444  0.93497871    -0.06100
N396        N  0.29457586  0.43873477  0.90849698    -0.62200
Mn397      Mn  0.24492768  0.00154316  0.93374518     1.18400
C398        C  0.32596902  0.42411391  0.91914174     0.96100
C399        C  0.32750999  0.07668371  0.92139272     0.96700
N400        N  0.17894991  0.46415603  0.54498726    -0.08400
N401        N  0.15503961  0.44011496  0.55313704    -0.64700
N402        N  0.20422633  0.04487075  0.56913529    -0.07200
N403        N  0.19570729  0.06867633  0.59373757    -0.65400
N404        N  0.17965012  0.04391937  0.54311246    -0.07900
N405        N  0.15456709  0.06731662  0.54893869    -0.65000
N406        N  0.20498643  0.46514087  0.56956980    -0.06800
N407        N  0.19978720  0.44157302  0.59428170    -0.65700
Mn408      Mn  0.17760041  0.00319911  0.50120143     1.10700
C409        C  0.16871530  0.42611130  0.58384751     0.97300
C410        C  0.16481805  0.08257890  0.58040685     0.97400
N411        N  0.31478422  0.04273157  0.54441631    -0.07900
N412        N  0.33987871  0.06645792  0.55003941    -0.63300
N413        N  0.28929522  0.46450125  0.57085476    -0.07300
N414        N  0.29581170  0.44138249  0.59604196    -0.60000
N415        N  0.31418825  0.46302591  0.54647341    -0.08600
N416        N  0.33860443  0.43923598  0.55503231    -0.62900
N417        N  0.29097151  0.04441082  0.56990280    -0.07600
N418        N  0.30004129  0.06903050  0.59392348    -0.60100
Mn419      Mn  0.31442953  0.00123029  0.50279662     1.20200
Mn420      Mn  0.24734940  0.00500938  0.57075264     1.10100
Cl421      Cl  0.24606275  0.00272571  0.50214429    -0.88000
C422        C  0.33045782  0.08271786  0.58082821     0.94300
C423        C  0.32650202  0.42581185  0.58587379     0.94100
C424        C  0.14693847  0.35269185  0.84946113     0.84400
C425        C  0.12499620  0.37841973  0.82693769    -0.55800
C426        C  0.10345824  0.39992237  0.84660022     0.07300
C427        C  0.10627368  0.39350999  0.88780488     0.18300
C428        C  0.16774694  0.37534776  0.87658438    -0.56500
C429        C  0.14691668  0.39696694  0.89662906     0.07400
C430        C  0.11975743  0.33307320  0.87121960    -0.56100
C431        C  0.09846775  0.35397320  0.89163564     0.08000
H432        H  0.12679223  0.37984759  0.79788730     0.12500
H433        H  0.08910907  0.41106453  0.90403536    -0.01700
H434        H  0.19683856  0.37550270  0.87861582     0.12800
H435        H  0.11766173  0.30473805  0.87056397     0.12600
N436        N  0.45996760  0.04827664  0.81338518    -0.08200
N437        N  0.45166466  0.07045185  0.83946130    -0.60300
N438        N  0.43372988  0.46846239  0.78850915    -0.07900
N439        N  0.40825848  0.44589357  0.79535959    -0.62400
N440        N  0.45882139  0.46819640  0.81395266    -0.07500
N441        N  0.45071960  0.44545544  0.83880522    -0.60300
N442        N  0.43489534  0.04836997  0.78786165    -0.07200
N443        N  0.40915796  0.07054635  0.79633776    -0.62800
C444        C  0.42037683  0.08493602  0.82813876     0.94000
C445        C  0.41950565  0.43118683  0.82639048     0.93800
N446        N  0.45645927  0.46339986  0.67879369    -0.08400
N447        N  0.44689041  0.43877857  0.65489638    -0.60900
N448        N  0.43324888  0.04489225  0.70195247    -0.06500
N449        N  0.40868339  0.06855212  0.69355314    -0.62100
N450        N  0.45806114  0.04352853  0.67748184    -0.08400
N451        N  0.45130389  0.06669103  0.65235227    -0.61200
N452        N  0.43283856  0.46530964  0.70445108    -0.06100
N453        N  0.40748091  0.44182546  0.69911362    -0.62200
Mn454      Mn  0.43311236  0.00697698  0.74566640     1.18400
C455        C  0.41640333  0.42539428  0.66830148     0.96100
C456        C  0.42054346  0.08207565  0.66269376     0.96700
N457        N  0.04476173  0.46705479  0.81581692    -0.08400
N458        N  0.05267398  0.44353393  0.84062854    -0.64700
N459        N  0.07016306  0.04650798  0.79081292    -0.07200
N460        N  0.09530276  0.06968621  0.80009317    -0.65400
N461        N  0.04469427  0.04683220  0.81465577    -0.07900
N462        N  0.05149455  0.07041586  0.83998622    -0.65000
N463        N  0.06895127  0.46653574  0.79066156    -0.06800
N464        N  0.09329461  0.44240875  0.79748129    -0.65700
Mn465      Mn  0.00205980  0.00746154  0.81515691     1.10700
C466        C  0.08294690  0.42820930  0.82860392     0.97300
C467        C  0.08294867  0.08455340  0.83072233     0.97400
N468        N  0.04269810  0.04315503  0.67873103    -0.07900
N469        N  0.04838886  0.06640784  0.65377508    -0.63300
N470        N  0.06831583  0.46448899  0.70544680    -0.07300
N471        N  0.09370932  0.44134018  0.69956012    -0.60000
N472        N  0.04379963  0.46325377  0.67933218    -0.08600
N473        N  0.05271080  0.43950795  0.65471624    -0.62900
N474        N  0.06850266  0.04429545  0.70357539    -0.07600
N475        N  0.09270078  0.06801618  0.69539179    -0.60100
Mn476      Mn  0.00024699  0.00306803  0.67765672     1.20200
Mn477      Mn  0.06976351  0.00565893  0.74759736     1.10100
Cl478      Cl  0.00135158  0.00579585  0.74648706    -0.88000
C479        C  0.07952826  0.08173286  0.66437722     0.94300
C480        C  0.08380234  0.42587188  0.66801281     0.94100
C481        C  0.34761376  0.35268978  0.65143161     0.84400
C482        C  0.37358570  0.37659063  0.67265211    -0.55800
C483        C  0.39356803  0.39768742  0.65161858     0.07300
C484        C  0.38541218  0.39273393  0.61077527     0.18300
C485        C  0.32488529  0.37737670  0.62854524    -0.56500
C486        C  0.34436952  0.39840232  0.60714293     0.07400
C487        C  0.37069519  0.33265663  0.62508377    -0.56100
C488        C  0.39067179  0.35320063  0.60380502     0.08000
H489        H  0.37530826  0.37746395  0.70185053     0.12500
H490        H  0.40147516  0.40988637  0.59360203    -0.01700
H491        H  0.29585666  0.37854258  0.62961896     0.12800
H492        H  0.37198148  0.30427470  0.62420435     0.12600
C493        C  0.09855088  0.15589180  0.59983308     0.84400
C494        C  0.12394987  0.17464790  0.62615454    -0.55800
C495        C  0.14439759  0.15264887  0.64643585     0.07300
C496        C  0.13761192  0.11359084  0.63881857     0.18300
C497        C  0.12240207  0.13173268  0.57772041    -0.56500
C498        C  0.14296147  0.10958331  0.59791728     0.07400
C499        C  0.07656297  0.13133236  0.62261800    -0.56100
C500        C  0.09674915  0.10912582  0.64321229     0.08000
H501        H  0.12600784  0.20293198  0.62839438     0.12500
H502        H  0.15431123  0.09564643  0.65539431    -0.01700
H503        H  0.12264203  0.13174927  0.54851686     0.12800
H504        H  0.04745901  0.13115648  0.62202066     0.12600
C505        C  0.39773433  0.15634567  0.59878897     0.84400
C506        C  0.42107603  0.13124898  0.62069499    -0.55800
C507        C  0.40218299  0.10938412  0.64169319     0.07300
C508        C  0.36111444  0.11462833  0.63866752     0.18300
C509        C  0.37173544  0.13275169  0.57723854    -0.56500
C510        C  0.35251548  0.11071008  0.59787120     0.07400
C511        C  0.37485339  0.17547422  0.62606849    -0.56100
C512        C  0.35576963  0.15383929  0.64699261     0.08000
H513        H  0.45010432  0.13060263  0.61938680     0.12500
H514        H  0.34553241  0.09686331  0.65564479    -0.01700
H515        H  0.36964743  0.13258147  0.54805276     0.12800
H516        H  0.37336447  0.20378237  0.62839681     0.12600
C517        C  0.15129843  0.35279527  0.64986676     0.84400
C518        C  0.17278119  0.37714747  0.62637965    -0.55800
C519        C  0.15206658  0.39850914  0.60517755     0.07300
C520        C  0.11126818  0.39342704  0.60967636     0.18300
C521        C  0.12712123  0.37716915  0.67137804    -0.56500
C522        C  0.10598015  0.39853391  0.65071461     0.07400
C523        C  0.12625412  0.33316285  0.62392119    -0.56100
C524        C  0.10521104  0.35395452  0.60280804     0.08000
H525        H  0.20186823  0.37793940  0.62702053     0.12500
H526        H  0.09419466  0.41074998  0.59277239    -0.01700
H527        H  0.12719254  0.37790615  0.70058771     0.12800
H528        H  0.12468784  0.30478948  0.62302858     0.12600
C529        C  0.10109863  0.15779639  0.89914895     0.84400
C530        C  0.08006298  0.13445913  0.87265362    -0.55800
C531        C  0.10060877  0.11223927  0.85292881     0.07300
C532        C  0.14130601  0.11581811  0.86153622     0.18300
C533        C  0.12332715  0.13237260  0.92214537    -0.56500
C534        C  0.14448587  0.11019687  0.90277273     0.07400
C535        C  0.12808693  0.17684672  0.87681094    -0.56100
C536        C  0.14908351  0.15522922  0.85698231     0.08000
H537        H  0.05097284  0.13460768  0.87068109     0.12500
H538        H  0.15828705  0.09801692  0.84538469    -0.01700
H539        H  0.12188700  0.13148591  0.95123775     0.12800
H540        H  0.12991946  0.20516124  0.87595660     0.12600
C541        C  0.39628381  0.40804659  0.84808076     0.84400
C542        C  0.41735973  0.38357784  0.87276088    -0.55800
C543        C  0.39627416  0.36282592  0.89277231     0.07300
C544        C  0.35577150  0.36849333  0.88662450     0.18300
C545        C  0.37158607  0.38382427  0.82561635    -0.56500
C546        C  0.35044195  0.36290345  0.84564072     0.07400
C547        C  0.37154272  0.42856577  0.87283212    -0.56100
C548        C  0.35044157  0.40808650  0.89318050     0.08000
H549        H  0.44643428  0.38247945  0.87419874     0.12500
H550        H  0.33884216  0.35156513  0.90320142    -0.01700
H551        H  0.37210539  0.38209521  0.79645774     0.12800
H552        H  0.37103945  0.45693616  0.87446218     0.12600
N553        N  0.31808262  0.70769003  0.21131560    -0.08200
N554        N  0.34338844  0.68486326  0.20357497    -0.60300
N555        N  0.29178374  0.78688727  0.18469112    -0.07900
N556        N  0.29695651  0.81138839  0.16086171    -0.62400
N557        N  0.31696198  0.78811555  0.20997073    -0.07500
N558        N  0.33977066  0.81349650  0.20393872    -0.60300
N559        N  0.29249566  0.70655021  0.18641960    -0.07200
N560        N  0.29978160  0.68289026  0.16155519    -0.62800
C561        C  0.33120037  0.66889776  0.17291375     0.94000
C562        C  0.32649235  0.82834728  0.17366859     0.93800
N563        N  0.18358145  0.78679497  0.20816001    -0.08400
N564        N  0.16048588  0.81225760  0.20184206    -0.60900
N565        N  0.20912741  0.70568484  0.18526702    -0.06500
N566        N  0.20106339  0.68187441  0.16040388    -0.62100
N567        N  0.18477582  0.70621101  0.21005906    -0.08400
N568        N  0.15975521  0.68281449  0.20260459    -0.61200
N569        N  0.20825245  0.78623107  0.18361842    -0.06100
N570        N  0.20248160  0.81122066  0.16011654    -0.62200
Mn571      Mn  0.25039723  0.74624964  0.18388348     1.18400
C572        C  0.17308959  0.82787008  0.17227376     0.96100
C573        C  0.17059990  0.66721437  0.17197075     0.96700
N574        N  0.31807025  0.79136038  0.29387768    -0.08400
N575        N  0.34130182  0.81694890  0.29872377    -0.64700
N576        N  0.29439059  0.71224456  0.32011146    -0.07200
N577        N  0.29982786  0.68770990  0.34390351    -0.65400
N578        N  0.31951977  0.71151007  0.29601701    -0.07900
N579        N  0.34312389  0.68670455  0.30326488    -0.65000
N580        N  0.29407070  0.79220651  0.31916239    -0.06800
N581        N  0.30099717  0.81818853  0.34223622    -0.65700
Mn582      Mn  0.31934320  0.74958169  0.25280032     1.10700
C583        C  0.33034943  0.83354815  0.32879117     0.97300
C584        C  0.33012228  0.67205559  0.33302709     0.97400
N585        N  0.18599185  0.70858825  0.29364943    -0.07900
N586        N  0.16204996  0.68454461  0.30083953    -0.63300
N587        N  0.20894185  0.79047568  0.31742161    -0.07300
N588        N  0.20125269  0.81514586  0.34110644    -0.60000
N589        N  0.18377021  0.78859261  0.29213493    -0.08600
N590        N  0.15843091  0.81179973  0.29804354    -0.62900
N591        N  0.21086024  0.71017348  0.31924177    -0.07600
N592        N  0.20414826  0.68724497  0.34433907    -0.60100
Mn593      Mn  0.18347015  0.74751256  0.25094413     1.20200
Mn594      Mn  0.25208520  0.75148318  0.32020682     1.10100
Cl595      Cl  0.25134453  0.74878169  0.25200705    -0.88000
C596        C  0.17408522  0.67073077  0.33213656     0.94300
C597        C  0.17005800  0.82867159  0.32822857     0.94100
N598        N  0.45687810  0.71849688  0.06372571    -0.08200
N599        N  0.43402213  0.71032837  0.08869784    -0.60300
N600        N  0.03798605  0.69506000  0.03852420    -0.07900
N601        N  0.06066043  0.66970083  0.04592245    -0.62400
N602        N  0.03856722  0.71897377  0.06415775    -0.07500
N603        N  0.06177885  0.71024542  0.08984579    -0.60300
N604        N  0.45687090  0.69428507  0.03834759    -0.07200
N605        N  0.43412966  0.66919641  0.04534119    -0.62800
C606        C  0.41939578  0.67993067  0.07634586     0.94000
C607        C  0.07595061  0.67984691  0.07755092     0.93800
N608        N  0.03557152  0.71777629  0.42959050    -0.08400
N609        N  0.06017458  0.70990945  0.40584427    -0.62100
N610        N  0.45534283  0.69246348  0.45520479    -0.06500
N611        N  0.43382907  0.66582121  0.44931496    -0.62100
N612        N  0.45352677  0.71452159  0.42851763    -0.08400
N613        N  0.43079213  0.70253192  0.40317248    -0.61200
N614        N  0.03654845  0.69493270  0.45559481    -0.06100
N615        N  0.06168485  0.67141502  0.45044044    -0.62200
Mn616      Mn  0.49667462  0.69405268  0.49679360     1.18400
C617        C  0.07680755  0.68137974  0.41978453     0.96100
C618        C  0.41857521  0.67221307  0.41702646     0.96700
N619        N  0.03766739  0.80133486  0.06380223    -0.08400
N620        N  0.06221479  0.80703352  0.08901606    -0.64700
N621        N  0.45571681  0.82637895  0.04142659    -0.07200
N622        N  0.43178217  0.85020027  0.05094990    -0.65400
N623        N  0.45665033  0.80080560  0.06464236    -0.07900
N624        N  0.43334431  0.80625791  0.08994296    -0.65000
N625        N  0.03714942  0.82682118  0.04040138    -0.06800
N626        N  0.06128188  0.85089006  0.04988907    -0.65700
Mn627      Mn  0.49747914  0.76005418  0.06473399     1.10700
C628        C  0.07679702  0.83776314  0.08016999     0.97300
C629        C  0.41794851  0.83691952  0.08116370     0.97400
N630        N  0.45101267  0.79934167  0.43083789    -0.07900
N631        N  0.42704674  0.80739329  0.40559834    -0.63300
N632        N  0.03342148  0.82639801  0.45320147    -0.07300
N633        N  0.05676298  0.85064283  0.44409935    -0.60000
N634        N  0.03246018  0.80090263  0.42893970    -0.08600
N635        N  0.05528513  0.80696749  0.40344817    -0.62900
N636        N  0.45202640  0.82399028  0.45605106    -0.07600
N637        N  0.42868322  0.84879567  0.44845654    -0.60100
Mn638      Mn  0.49290160  0.75833716  0.42826560     1.20200
Mn639      Mn  0.49475981  0.82714055  0.49767750     1.10100
Cl640      Cl  0.49546545  0.76003414  0.49680216    -0.88000
C641        C  0.41265695  0.83781976  0.41742914     0.94300
C642        C  0.07022651  0.83791561  0.41301374     0.94100
C643        C  0.34974131  0.59994436  0.39897894     0.84400
C644        C  0.37360953  0.62545877  0.42055347    -0.55800
C645        C  0.39348379  0.64695619  0.39983113     0.07300
C646        C  0.38801993  0.64026832  0.35902640     0.18300
C647        C  0.32741269  0.62296996  0.37401235    -0.56500
C648        C  0.34727778  0.64410490  0.35324182     0.07400
C649        C  0.37511744  0.57988579  0.37456893    -0.56100
C650        C  0.39517729  0.60073049  0.35355475     0.08000
H651        H  0.37451768  0.62658403  0.44976517     0.12500
H652        H  0.40427874  0.65745026  0.34205959    -0.01700
H653        H  0.29832215  0.62376432  0.37397130     0.12800
H654        H  0.37691586  0.55154543  0.37375698     0.12600
N655        N  0.17831614  0.54278968  0.45839806    -0.08200
N656        N  0.15426752  0.56731610  0.45184267    -0.60300
N657        N  0.20235374  0.96248250  0.43430331    -0.07900
N658        N  0.19567537  0.93881018  0.40912505    -0.62400
N659        N  0.17695258  0.96276136  0.45816458    -0.07500
N660        N  0.15191538  0.93946605  0.44914065    -0.60300
N661        N  0.20252390  0.54228610  0.43328043    -0.07200
N662        N  0.19491502  0.56615462  0.40873166    -0.62800
C663        C  0.16482765  0.58175747  0.42088780     0.94000
C664        C  0.16435000  0.92461833  0.41860208     0.93800
N665        N  0.31214000  0.96015554  0.46017481    -0.08400
N666        N  0.33772576  0.93807475  0.45098349    -0.60900
N667        N  0.28814556  0.54037505  0.43500050    -0.06500
N668        N  0.29586194  0.56286791  0.40988977    -0.62100
N669        N  0.31374900  0.53988789  0.45992623    -0.08400
N670        N  0.33937964  0.56205629  0.45229311    -0.61200
N671        N  0.28673029  0.96059436  0.43497870    -0.06100
N672        N  0.29457582  0.93873469  0.40849697    -0.62200
Mn673      Mn  0.24492766  0.50154316  0.43374513     1.18400
C674        C  0.32596904  0.92411391  0.41914166     0.96100
C675        C  0.32751005  0.57668363  0.42139270     0.96700
N676        N  0.17894990  0.96415600  0.04498731    -0.08400
N677        N  0.15503956  0.94011491  0.05313706    -0.64700
N678        N  0.20422620  0.54487064  0.06913546    -0.07200
N679        N  0.19570737  0.56867640  0.09373762    -0.65400
N680        N  0.17965009  0.54391938  0.04311247    -0.07900
N681        N  0.15456701  0.56731656  0.04893861    -0.65000
N682        N  0.20498648  0.96514080  0.06956978    -0.06800
N683        N  0.19978722  0.94157295  0.09428167    -0.65700
Mn684      Mn  0.17760039  0.50319909  0.00120145     1.10700
C685        C  0.16871529  0.92611125  0.08384749     0.97300
C686        C  0.16481805  0.58257886  0.08040682     0.97400
N687        N  0.31478419  0.54273160  0.04441634    -0.07900
N688        N  0.33987874  0.56645790  0.05003945    -0.63300
N689        N  0.28929518  0.96450120  0.07085488    -0.07300
N690        N  0.29581166  0.94138249  0.09604208    -0.60000
N691        N  0.31418823  0.96302582  0.04647353    -0.08600
N692        N  0.33860451  0.93923594  0.05503232    -0.62900
N693        N  0.29097148  0.54441081  0.06990282    -0.07600
N694        N  0.30004133  0.56903047  0.09392349    -0.60100
Mn695      Mn  0.31442952  0.50123034  0.00279674     1.20200
Mn696      Mn  0.24734935  0.50500938  0.07075265     1.10100
Cl697      Cl  0.24606271  0.50272570  0.00214440    -0.88000
C698        C  0.33045774  0.58271801  0.08082814     0.94300
C699        C  0.32650198  0.92581182  0.08587378     0.94100
C700        C  0.14693854  0.85269188  0.34946090     0.84400
C701        C  0.12499622  0.87841968  0.32693746    -0.55800
C702        C  0.10345842  0.89992231  0.34660004     0.07300
C703        C  0.10627368  0.89350983  0.38780474     0.18300
C704        C  0.16774693  0.87534780  0.37658431    -0.56500
C705        C  0.14691662  0.89696696  0.39662890     0.07400
C706        C  0.11975756  0.83307320  0.37121953    -0.56100
C707        C  0.09846786  0.85397307  0.39163560     0.08000
H708        H  0.12679220  0.87984745  0.29788676     0.12500
H709        H  0.08910895  0.91106418  0.40403496    -0.01700
H710        H  0.19683855  0.87550314  0.37861559     0.12800
H711        H  0.11766180  0.80473803  0.37056372     0.12600
N712        N  0.45996754  0.54827661  0.31338526    -0.08200
N713        N  0.45166474  0.57045186  0.33946141    -0.60300
N714        N  0.43372998  0.96846235  0.28850915    -0.07900
N715        N  0.40825851  0.94589363  0.29535968    -0.62400
N716        N  0.45882143  0.96819643  0.31395267    -0.07500
N717        N  0.45071963  0.94545544  0.33880520    -0.60300
N718        N  0.43489532  0.54836997  0.28786168    -0.07200
N719        N  0.40915801  0.57054637  0.29633777    -0.62800
C720        C  0.42037689  0.58493595  0.32813885     0.94000
C721        C  0.41950571  0.93118680  0.32639047     0.93800
N722        N  0.45645923  0.96339987  0.17879376    -0.08400
N723        N  0.44689044  0.93877864  0.15489637    -0.60900
N724        N  0.43324888  0.54489230  0.20195256    -0.06500
N725        N  0.40868334  0.56855212  0.19355326    -0.62100
N726        N  0.45806109  0.54352860  0.17748183    -0.08400
N727        N  0.45130395  0.56669116  0.15235227    -0.61200
N728        N  0.43283849  0.96530968  0.20445115    -0.06100
N729        N  0.40748091  0.94182548  0.19911356    -0.62200
Mn730      Mn  0.43311234  0.50697698  0.24566651     1.18400
C731        C  0.41640343  0.92539421  0.16830148     0.96100
C732        C  0.42054340  0.58207562  0.16269377     0.96700
N733        N  0.04476170  0.96705476  0.31581696    -0.08400
N734        N  0.05267400  0.94353388  0.34062854    -0.64700
N735        N  0.07016304  0.54650789  0.29081296    -0.07200
N736        N  0.09530272  0.56968616  0.30009312    -0.65400
N737        N  0.04469426  0.54683208  0.31465583    -0.07900
N738        N  0.05149455  0.57041581  0.33998620    -0.65000
N739        N  0.06895123  0.96653571  0.29066157    -0.06800
N740        N  0.09329466  0.94240880  0.29748135    -0.65700
Mn741      Mn  0.00205973  0.50746156  0.31515689     1.10700
C742        C  0.08294695  0.92820926  0.32860392     0.97300
C743        C  0.08294873  0.58455330  0.33072236     0.97400
N744        N  0.04269807  0.54315508  0.17873099    -0.07900
N745        N  0.04838886  0.56640788  0.15377508    -0.63300
N746        N  0.06831578  0.96448888  0.20544681    -0.07300
N747        N  0.09370937  0.94134020  0.19956009    -0.60000
N748        N  0.04379965  0.96325371  0.17933213    -0.08600
N749        N  0.05271082  0.93950787  0.15471620    -0.62900
N750        N  0.06850272  0.54429539  0.20357530    -0.07600
N751        N  0.09270090  0.56801612  0.19539182    -0.60100
Mn752      Mn  0.00024707  0.50306800  0.17765666     1.20200
Mn753      Mn  0.06976349  0.50565894  0.24759733     1.10100
Cl754      Cl  0.00135158  0.50579585  0.24648703    -0.88000
C755        C  0.07952824  0.58173291  0.16437733     0.94300
C756        C  0.08380229  0.92587177  0.16801288     0.94100
C757        C  0.34761378  0.85268975  0.15143156     0.84400
C758        C  0.37358581  0.87659060  0.17265197    -0.55800
C759        C  0.39356805  0.89768748  0.15161843     0.07300
C760        C  0.38541216  0.89273399  0.11077524     0.18300
C761        C  0.32488526  0.87737665  0.12854525    -0.56500
C762        C  0.34436945  0.89840231  0.10714292     0.07400
C763        C  0.37069524  0.83265667  0.12508367    -0.56100
C764        C  0.39067182  0.85320067  0.10380491     0.08000
H765        H  0.37530812  0.87746423  0.20185010     0.12500
H766        H  0.40147507  0.90988651  0.09360210    -0.01700
H767        H  0.29585663  0.87854242  0.12961899     0.12800
H768        H  0.37198149  0.80427467  0.12420399     0.12600
C769        C  0.09855089  0.65589187  0.09983301     0.84400
C770        C  0.12394991  0.67464797  0.12615449    -0.55800
C771        C  0.14439760  0.65264890  0.14643583     0.07300
C772        C  0.13761191  0.61359086  0.13881848     0.18300
C773        C  0.12240202  0.63173275  0.07772029    -0.56500
C774        C  0.14296149  0.60958341  0.09791710     0.07400
C775        C  0.07656299  0.63133241  0.12261797    -0.56100
C776        C  0.09674915  0.60912573  0.14321218     0.08000
H777        H  0.12600759  0.70293204  0.12839461     0.12500
H778        H  0.15431124  0.59564631  0.15539407    -0.01700
H779        H  0.12264227  0.63174960  0.04851641     0.12800
H780        H  0.04745900  0.63115630  0.12202014     0.12600
C781        C  0.39773438  0.65634562  0.09878902     0.84400
C782        C  0.42107605  0.63124902  0.12069498    -0.55800
C783        C  0.40218300  0.60938412  0.14169318     0.07300
C784        C  0.36111446  0.61462828  0.13866758     0.18300
C785        C  0.37173545  0.63275174  0.07723859    -0.56500
C786        C  0.35251545  0.61071014  0.09787129     0.07400
C787        C  0.37485345  0.67547413  0.12606843    -0.56100
C788        C  0.35576977  0.65383913  0.14699259     0.08000
H789        H  0.45010435  0.63060255  0.11938660     0.12500
H790        H  0.34553237  0.59686359  0.15564497    -0.01700
H791        H  0.36964752  0.63258150  0.04805315     0.12800
H792        H  0.37336470  0.70378196  0.12839711     0.12600
C793        C  0.15129852  0.85279536  0.14986687     0.84400
C794        C  0.17278131  0.87714753  0.12637967    -0.55800
C795        C  0.15206666  0.89850912  0.10517760     0.07300
C796        C  0.11126820  0.89342703  0.10967643     0.18300
C797        C  0.12712122  0.87716916  0.17137818    -0.56500
C798        C  0.10598018  0.89853388  0.15071477     0.07400
C799        C  0.12625415  0.83316297  0.12392113    -0.56100
C800        C  0.10521106  0.85395461  0.10280804     0.08000
H801        H  0.20186868  0.87793954  0.12702039     0.12500
H802        H  0.09419473  0.91075006  0.09277240    -0.01700
H803        H  0.12719247  0.87790612  0.20058822     0.12800
H804        H  0.12468771  0.80478962  0.12302849     0.12600
C805        C  0.10109849  0.65779637  0.39914872     0.84400
C806        C  0.08006288  0.63445902  0.37265355    -0.55800
C807        C  0.10060879  0.61223923  0.35292878     0.07300
C808        C  0.14130605  0.61581810  0.36153610     0.18300
C809        C  0.12332708  0.63237259  0.42214512    -0.56500
C810        C  0.14448596  0.61019684  0.40277256     0.07400
C811        C  0.12808686  0.67684678  0.37681086    -0.56100
C812        C  0.14908339  0.65522927  0.35698215     0.08000
H813        H  0.05097276  0.63460754  0.37068086     0.12500
H814        H  0.15828697  0.59801713  0.34538419    -0.01700
H815        H  0.12188719  0.63148626  0.45123720     0.12800
H816        H  0.12991901  0.70516132  0.37595633     0.12600
C817        C  0.39628380  0.90804668  0.34808077     0.84400
C818        C  0.41735969  0.88357791  0.37276093    -0.55800
C819        C  0.39627412  0.86282601  0.39277234     0.07300
C820        C  0.35577149  0.86849333  0.38662446     0.18300
C821        C  0.37158597  0.88382430  0.32561631    -0.56500
C822        C  0.35044191  0.86290346  0.34564071     0.07400
C823        C  0.37154275  0.92856585  0.37283214    -0.56100
C824        C  0.35044164  0.90808657  0.39318046     0.08000
H825        H  0.44643425  0.88247938  0.37419879     0.12500
H826        H  0.33884207  0.85156491  0.40320114    -0.01700
H827        H  0.37210552  0.88209495  0.29645779     0.12800
H828        H  0.37103929  0.95693649  0.37446230     0.12600
N829        N  0.31808280  0.70769011  0.71131544    -0.08200
N830        N  0.34338861  0.68486327  0.70357507    -0.60300
N831        N  0.29178370  0.78688725  0.68469101    -0.07900
N832        N  0.29695656  0.81138844  0.66086175    -0.62400
N833        N  0.31696199  0.78811555  0.70997058    -0.07500
N834        N  0.33977068  0.81349656  0.70393872    -0.60300
N835        N  0.29249571  0.70655013  0.68641950    -0.07200
N836        N  0.29978164  0.68289018  0.66155515    -0.62800
C837        C  0.33120050  0.66889789  0.67291378     0.94000
C838        C  0.32649239  0.82834733  0.67366863     0.93800
N839        N  0.18358153  0.78679488  0.70816010    -0.08400
N840        N  0.16048605  0.81225753  0.70184211    -0.60900
N841        N  0.20912737  0.70568479  0.68526705    -0.06500
N842        N  0.20106346  0.68187424  0.66040395    -0.62100
N843        N  0.18477587  0.70621092  0.71005915    -0.08400
N844        N  0.15975517  0.68281453  0.70260454    -0.61200
N845        N  0.20825240  0.78623107  0.68361839    -0.06100
N846        N  0.20248155  0.81122071  0.66011654    -0.62200
Mn847      Mn  0.25039715  0.74624961  0.68388343     1.18400
C848        C  0.17308965  0.82787013  0.67227381     0.96100
C849        C  0.17059988  0.66721437  0.67197076     0.96700
N850        N  0.31807028  0.79136034  0.79387766    -0.08400
N851        N  0.34130175  0.81694898  0.79872379    -0.64700
N852        N  0.29439062  0.71224452  0.82011134    -0.07200
N853        N  0.29982786  0.68770988  0.84390343    -0.65400
N854        N  0.31951986  0.71151018  0.79601696    -0.07900
N855        N  0.34312395  0.68670464  0.80326479    -0.65000
N856        N  0.29407062  0.79220652  0.81916221    -0.06800
N857        N  0.30099727  0.81818846  0.84223611    -0.65700
Mn858      Mn  0.31934322  0.74958172  0.75280022     1.10700
C859        C  0.33034955  0.83354808  0.82879127     0.97300
C860        C  0.33012235  0.67205572  0.83302705     0.97400
N861        N  0.18599190  0.70858816  0.79364936    -0.07900
N862        N  0.16205001  0.68454454  0.80083954    -0.63300
N863        N  0.20894183  0.79047563  0.81742160    -0.07300
N864        N  0.20125269  0.81514587  0.84110640    -0.60000
N865        N  0.18377024  0.78859261  0.79213494    -0.08600
N866        N  0.15843088  0.81179974  0.79804366    -0.62900
N867        N  0.21086015  0.71017357  0.81924176    -0.07600
N868        N  0.20414824  0.68724504  0.84433908    -0.60100
Mn869      Mn  0.18347021  0.74751248  0.75094419     1.20200
Mn870      Mn  0.25208517  0.75148312  0.82020673     1.10100
Cl871      Cl  0.25134461  0.74878169  0.75200699    -0.88000
C872        C  0.17408526  0.67073077  0.83213661     0.94300
C873        C  0.17005797  0.82867167  0.82822863     0.94100
N874        N  0.45687806  0.71849702  0.56372575    -0.08200
N875        N  0.43402209  0.71032842  0.58869778    -0.60300
N876        N  0.03798610  0.69505998  0.53852417    -0.07900
N877        N  0.06066043  0.66970074  0.54592244    -0.62400
N878        N  0.03856719  0.71897370  0.56415781    -0.07500
N879        N  0.06177885  0.71024537  0.58984578    -0.60300
N880        N  0.45687088  0.69428518  0.53834763    -0.07200
N881        N  0.43412978  0.66919640  0.54534118    -0.62800
C882        C  0.41939582  0.67993066  0.57634581     0.94000
C883        C  0.07595067  0.67984683  0.57755088     0.93800
N884        N  0.03557156  0.71777625  0.92959055    -0.08400
N885        N  0.06017464  0.70990954  0.90584428    -0.62100
N886        N  0.45534278  0.69246345  0.95520489    -0.06500
N887        N  0.43382901  0.66582122  0.94931490    -0.62100
N888        N  0.45352666  0.71452156  0.92851777    -0.08400
N889        N  0.43079213  0.70253196  0.90317245    -0.61200
N890        N  0.03654856  0.69493264  0.95559483    -0.06100
N891        N  0.06168510  0.67141509  0.95044051    -0.62200
Mn892      Mn  0.49667466  0.69405266  0.99679362     1.18400
C893        C  0.07680769  0.68137985  0.91978459     0.96100
C894        C  0.41857509  0.67221321  0.91702644     0.96700
N895        N  0.03766759  0.80133471  0.56380216    -0.08400
N896        N  0.06221493  0.80703339  0.58901605    -0.64700
N897        N  0.45571670  0.82637886  0.54142653    -0.07200
N898        N  0.43178207  0.85020016  0.55094994    -0.65400
N899        N  0.45665035  0.80080567  0.56464243    -0.07900
N900        N  0.43334426  0.80625786  0.58994303    -0.65000
N901        N  0.03714944  0.82682113  0.54040141    -0.06800
N902        N  0.06128180  0.85089005  0.54988921    -0.65700
Mn903      Mn  0.49747907  0.76005422  0.56473398     1.10700
C904        C  0.07679710  0.83776305  0.58017001     0.97300
C905        C  0.41794852  0.83691944  0.58116383     0.97400
N906        N  0.45101266  0.79934166  0.93083804    -0.07900
N907        N  0.42704674  0.80739318  0.90559842    -0.63300
N908        N  0.03342140  0.82639800  0.95320137    -0.07300
N909        N  0.05676288  0.85064290  0.94409926    -0.60000
N910        N  0.03246011  0.80090255  0.92893974    -0.08600
N911        N  0.05528507  0.80696748  0.90344822    -0.62900
N912        N  0.45202642  0.82399033  0.95605114    -0.07600
N913        N  0.42868322  0.84879571  0.94845658    -0.60100
Mn914      Mn  0.49290152  0.75833711  0.92826565     1.20200
Mn915      Mn  0.49475978  0.82714052  0.99767761     1.10100
Cl916      Cl  0.49546541  0.76003413  0.99680219    -0.88000
C917        C  0.41265703  0.83781975  0.91742914     0.94300
C918        C  0.07022667  0.83791551  0.91301391     0.94100
C919        C  0.34974139  0.59994441  0.89897890     0.84400
C920        C  0.37360969  0.62545883  0.92055342    -0.55800
C921        C  0.39348389  0.64695625  0.89983097     0.07300
C922        C  0.38802002  0.64026837  0.85902632     0.18300
C923        C  0.32741273  0.62297000  0.87401221    -0.56500
C924        C  0.34727788  0.64410509  0.85324176     0.07400
C925        C  0.37511749  0.57988572  0.87456888    -0.56100
C926        C  0.39517741  0.60073052  0.85355471     0.08000
H927        H  0.37451787  0.62658423  0.94976510     0.12500
H928        H  0.40427917  0.65745050  0.84205963    -0.01700
H929        H  0.29832224  0.62376463  0.87397137     0.12800
H930        H  0.37691611  0.55154542  0.87375705     0.12600
N931        N  0.17831598  0.54278963  0.95839811    -0.08200
N932        N  0.15426748  0.56731617  0.95184274    -0.60300
N933        N  0.20235380  0.96248248  0.93430347    -0.07900
N934        N  0.19567540  0.93881018  0.90912523    -0.62400
N935        N  0.17695254  0.96276139  0.95816462    -0.07500
N936        N  0.15191535  0.93946607  0.94914068    -0.60300
N937        N  0.20252389  0.54228615  0.93328060    -0.07200
N938        N  0.19491499  0.56615452  0.90873169    -0.62800
C939        C  0.16482766  0.58175750  0.92088785     0.94000
C940        C  0.16435005  0.92461830  0.91860220     0.93800
N941        N  0.31214006  0.96015545  0.96017495    -0.08400
N942        N  0.33772591  0.93807481  0.95098351    -0.60900
N943        N  0.28814561  0.54037507  0.93500061    -0.06500
N944        N  0.29586191  0.56286791  0.90988977    -0.62100
N945        N  0.31374901  0.53988794  0.95992635    -0.08400
N946        N  0.33937971  0.56205624  0.95229309    -0.61200
N947        N  0.28673048  0.96059446  0.93497870    -0.06100
N948        N  0.29457587  0.93873477  0.90849695    -0.62200
Mn949      Mn  0.24492771  0.50154317  0.93374517     1.18400
C950        C  0.32596904  0.92411389  0.91914176     0.96100
C951        C  0.32751001  0.57668366  0.92139274     0.96700
N952        N  0.17894990  0.96415604  0.54498726    -0.08400
N953        N  0.15503966  0.94011494  0.55313708    -0.64700
N954        N  0.20422636  0.54487075  0.56913530    -0.07200
N955        N  0.19570733  0.56867634  0.59373755    -0.65400
N956        N  0.17965014  0.54391940  0.54311248    -0.07900
N957        N  0.15456709  0.56731667  0.54893864    -0.65000
N958        N  0.20498649  0.96514080  0.56956975    -0.06800
N959        N  0.19978724  0.94157295  0.59428164    -0.65700
Mn960      Mn  0.17760038  0.50319911  0.50120142     1.10700
C961        C  0.16871535  0.92611121  0.58384751     0.97300
C962        C  0.16481806  0.58257893  0.58040680     0.97400
N963        N  0.31478422  0.54273166  0.54441625    -0.07900
N964        N  0.33987873  0.56645796  0.55003936    -0.63300
N965        N  0.28929527  0.96450122  0.57085479    -0.07300
N966        N  0.29581164  0.94138249  0.59604204    -0.60000
N967        N  0.31418824  0.96302582  0.54647335    -0.08600
N968        N  0.33860442  0.93923592  0.55503224    -0.62900
N969        N  0.29097156  0.54441083  0.56990282    -0.07600
N970        N  0.30004127  0.56903046  0.59392355    -0.60100
Mn971      Mn  0.31442947  0.50123036  0.50279660     1.20200
Mn972      Mn  0.24734936  0.50500943  0.57075265     1.10100
Cl973      Cl  0.24606272  0.50272573  0.50214429    -0.88000
C974        C  0.33045778  0.58271783  0.58082821     0.94300
C975        C  0.32650198  0.92581186  0.58587380     0.94100
C976        C  0.14693848  0.85269199  0.84946114     0.84400
C977        C  0.12499624  0.87841973  0.82693766    -0.55800
C978        C  0.10345823  0.89992234  0.84660019     0.07300
C979        C  0.10627366  0.89351000  0.88780487     0.18300
C980        C  0.16774697  0.87534789  0.87658434    -0.56500
C981        C  0.14691664  0.89696701  0.89662903     0.07400
C982        C  0.11975748  0.83307335  0.87121969    -0.56100
C983        C  0.09846773  0.85397331  0.89163572     0.08000
H984        H  0.12679199  0.87984722  0.79788724     0.12500
H985        H  0.08910908  0.91106457  0.90403538    -0.01700
H986        H  0.19683852  0.87550284  0.87861582     0.12800
H987        H  0.11766210  0.80473849  0.87056417     0.12600
N988        N  0.45996763  0.54827663  0.81338515    -0.08200
N989        N  0.45166466  0.57045183  0.83946125    -0.60300
N990        N  0.43372988  0.96846248  0.78850922    -0.07900
N991        N  0.40825851  0.94589358  0.79535957    -0.62400
N992        N  0.45882148  0.96819640  0.81395264    -0.07500
N993        N  0.45071962  0.94545547  0.83880519    -0.60300
N994        N  0.43489531  0.54836985  0.78786167    -0.07200
N995        N  0.40915801  0.57054629  0.79633772    -0.62800
C996        C  0.42037690  0.58493604  0.82813870     0.94000
C997        C  0.41950568  0.93118683  0.82639045     0.93800
N998        N  0.45645930  0.96339989  0.67879376    -0.08400
N999        N  0.44689046  0.93877866  0.65489639    -0.60900
N1000       N  0.43324893  0.54489224  0.70195249    -0.06500
N1001       N  0.40868345  0.56855214  0.69355324    -0.62100
N1002       N  0.45806115  0.54352852  0.67748180    -0.08400
N1003       N  0.45130395  0.56669107  0.65235227    -0.61200
N1004       N  0.43283846  0.96530976  0.70445105    -0.06100
N1005       N  0.40748089  0.94182552  0.69911360    -0.62200
Mn1006     Mn  0.43311237  0.50697695  0.74566638     1.18400
C1007       C  0.41640334  0.92539435  0.66830144     0.96100
C1008       C  0.42054348  0.58207563  0.66269380     0.96700
N1009       N  0.04476177  0.96705480  0.81581693    -0.08400
N1010       N  0.05267400  0.94353397  0.84062857    -0.64700
N1011       N  0.07016296  0.54650802  0.79081293    -0.07200
N1012       N  0.09530267  0.56968624  0.80009316    -0.65400
N1013       N  0.04469418  0.54683224  0.81465579    -0.07900
N1014       N  0.05149448  0.57041591  0.83998623    -0.65000
N1015       N  0.06895136  0.96653570  0.79066158    -0.06800
N1016       N  0.09329465  0.94240864  0.79748124    -0.65700
Mn1017     Mn  0.00205976  0.50746150  0.81515689     1.10700
C1018       C  0.08294692  0.92820927  0.82860391     0.97300
C1019       C  0.08294859  0.58455343  0.83072234     0.97400
N1020       N  0.04269808  0.54315510  0.67873107    -0.07900
N1021       N  0.04838894  0.56640784  0.65377507    -0.63300
N1022       N  0.06831572  0.96448892  0.70544680    -0.07300
N1023       N  0.09370931  0.94134019  0.69956002    -0.60000
N1024       N  0.04379960  0.96325382  0.67933216    -0.08600
N1025       N  0.05271071  0.93950788  0.65471630    -0.62900
N1026       N  0.06850270  0.54429543  0.70357539    -0.07600
N1027       N  0.09270079  0.56801618  0.69539179    -0.60100
Mn1028     Mn  0.00024698  0.50306803  0.67765671     1.20200
Mn1029     Mn  0.06976351  0.50565896  0.74759740     1.10100
Cl1030     Cl  0.00135154  0.50579587  0.74648705    -0.88000
C1031       C  0.07952829  0.58173288  0.66437723     0.94300
C1032       C  0.08380232  0.92587184  0.66801276     0.94100
C1033       C  0.34761378  0.85268968  0.65143165     0.84400
C1034       C  0.37358576  0.87659055  0.67265213    -0.55800
C1035       C  0.39356801  0.89768738  0.65161859     0.07300
C1036       C  0.38541220  0.89273378  0.61077527     0.18300
C1037       C  0.32488527  0.87737661  0.62854527    -0.56500
C1038       C  0.34436948  0.89840223  0.60714295     0.07400
C1039       C  0.37069518  0.83265655  0.62508380    -0.56100
C1040       C  0.39067186  0.85320042  0.60380510     0.08000
H1041       H  0.37530856  0.87746385  0.70185055     0.12500
H1042       H  0.40147498  0.90988620  0.59360200    -0.01700
H1043       H  0.29585662  0.87854249  0.62961904     0.12800
H1044       H  0.37198150  0.80427429  0.62420453     0.12600
C1045       C  0.09855104  0.65589183  0.59983307     0.84400
C1046       C  0.12394999  0.67464788  0.62615456    -0.55800
C1047       C  0.14439759  0.65264886  0.64643597     0.07300
C1048       C  0.13761197  0.61359086  0.63881854     0.18300
C1049       C  0.12240211  0.63173279  0.57772039    -0.56500
C1050       C  0.14296145  0.60958331  0.59791722     0.07400
C1051       C  0.07656308  0.63133235  0.62261800    -0.56100
C1052       C  0.09674930  0.60912577  0.64321227     0.08000
H1053       H  0.12600786  0.70293194  0.62839455     0.12500
H1054       H  0.15431114  0.59564630  0.65539424    -0.01700
H1055       H  0.12264182  0.63174950  0.54851683     0.12800
H1056       H  0.04745941  0.63115650  0.62202075     0.12600
C1057       C  0.39773440  0.65634556  0.59878895     0.84400
C1058       C  0.42107611  0.63124891  0.62069496    -0.55800
C1059       C  0.40218301  0.60938408  0.64169321     0.07300
C1060       C  0.36111448  0.61462822  0.63866749     0.18300
C1061       C  0.37173551  0.63275162  0.57723850    -0.56500
C1062       C  0.35251545  0.61071003  0.59787115     0.07400
C1063       C  0.37485339  0.67547416  0.62606844    -0.56100
C1064       C  0.35576974  0.65383914  0.64699264     0.08000
H1065       H  0.45010438  0.63060259  0.61938680     0.12500
H1066       H  0.34553254  0.59686314  0.65564481    -0.01700
H1067       H  0.36964711  0.63258187  0.54805272     0.12800
H1068       H  0.37336455  0.70378199  0.62839698     0.12600
C1069       C  0.15129850  0.85279529  0.64986680     0.84400
C1070       C  0.17278131  0.87714748  0.62637976    -0.55800
C1071       C  0.15206660  0.89850912  0.60517760     0.07300
C1072       C  0.11126814  0.89342704  0.60967631     0.18300
C1073       C  0.12712123  0.87716913  0.67137802    -0.56500
C1074       C  0.10598015  0.89853387  0.65071452     0.07400
C1075       C  0.12625417  0.83316289  0.62392117    -0.56100
C1076       C  0.10521108  0.85395458  0.60280803     0.08000
H1077       H  0.20186836  0.87793941  0.62702064     0.12500
H1078       H  0.09419457  0.91074989  0.59277223    -0.01700
H1079       H  0.12719211  0.87790607  0.70058768     0.12800
H1080       H  0.12468783  0.80478958  0.62302854     0.12600
C1081       C  0.10109854  0.65779636  0.89914895     0.84400
C1082       C  0.08006289  0.63445915  0.87265372    -0.55800
C1083       C  0.10060859  0.61223928  0.85292885     0.07300
C1084       C  0.14130593  0.61581812  0.86153621     0.18300
C1085       C  0.12332712  0.63237258  0.92214535    -0.56500
C1086       C  0.14448591  0.61019690  0.90277272     0.07400
C1087       C  0.12808693  0.67684666  0.87681094    -0.56100
C1088       C  0.14908340  0.65522920  0.85698225     0.08000
H1089       H  0.05097245  0.63460802  0.87068118     0.12500
H1090       H  0.15828721  0.59801719  0.84538464    -0.01700
H1091       H  0.12188748  0.63148637  0.95123774     0.12800
H1092       H  0.12991948  0.70516117  0.87595643     0.12600
C1093       C  0.39628389  0.90804652  0.84808075     0.84400
C1094       C  0.41735983  0.88357783  0.87276083    -0.55800
C1095       C  0.39627413  0.86282601  0.89277232     0.07300
C1096       C  0.35577140  0.86849333  0.88662451     0.18300
C1097       C  0.37158607  0.88382425  0.82561639    -0.56500
C1098       C  0.35044189  0.86290345  0.84564075     0.07400
C1099       C  0.37154278  0.92856569  0.87283209    -0.56100
C1100       C  0.35044163  0.90808646  0.89318059     0.08000
H1101       H  0.44643437  0.88247950  0.87419881     0.12500
H1102       H  0.33884210  0.85156489  0.90320141    -0.01700
H1103       H  0.37210520  0.88209543  0.79645778     0.12800
H1104       H  0.37103980  0.95693606  0.87446232     0.12600
N1105       N  0.81799181  0.20768699  0.21131140    -0.08200
N1106       N  0.84328918  0.18485200  0.20357729    -0.60300
N1107       N  0.79174273  0.28690500  0.18468944    -0.07900
N1108       N  0.79692646  0.31141407  0.16087213    -0.62400
N1109       N  0.81692641  0.28810831  0.20996436    -0.07500
N1110       N  0.83975443  0.31347587  0.20393614    -0.60300
N1111       N  0.79241659  0.20656672  0.18640285    -0.07200
N1112       N  0.79970055  0.18291091  0.16153608    -0.62800
C1113       C  0.83110694  0.16890323  0.17290669     0.94000
C1114       C  0.82647989  0.32834714  0.17367513     0.93800
N1115       N  0.68354273  0.28682157  0.20811677    -0.08400
N1116       N  0.66048139  0.31231464  0.20181933    -0.60900
N1117       N  0.70906341  0.20571970  0.18520581    -0.06500
N1118       N  0.70100995  0.18189800  0.16035018    -0.62100
N1119       N  0.68471942  0.20623444  0.21000476    -0.08400
N1120       N  0.65971642  0.18281645  0.20256635    -0.61200
N1121       N  0.70822636  0.28626301  0.18358911    -0.06100
N1122       N  0.70250202  0.31128619  0.16011802    -0.62200
Mn1123     Mn  0.75034447  0.24627663  0.18385170     1.18400
C1124       C  0.67312501  0.32795032  0.17228275     0.96100
C1125       C  0.67056274  0.16721753  0.17193335     0.96700
N1126       N  0.81800348  0.29135160  0.29385807    -0.08400
N1127       N  0.84122915  0.31694534  0.29869126    -0.64700
N1128       N  0.79430672  0.21224204  0.32011100    -0.07200
N1129       N  0.79973994  0.18771785  0.34391963    -0.65400
N1130       N  0.81943933  0.21149366  0.29602103    -0.07900
N1131       N  0.84304336  0.18669180  0.30329157    -0.65000
N1132       N  0.79399411  0.29221479  0.31913173    -0.06800
N1133       N  0.80090670  0.31821415  0.34218773    -0.65700
Mn1134     Mn  0.81927433  0.24956924  0.25279268     1.10700
C1135       C  0.83026189  0.33356551  0.32874033     0.97300
C1136       C  0.83004012  0.17205619  0.33306199     0.97400
N1137       N  0.68593634  0.20860744  0.29359022    -0.07900
N1138       N  0.66201610  0.18454127  0.30076921    -0.63300
N1139       N  0.70887152  0.29050275  0.31737212    -0.07300
N1140       N  0.70118841  0.31517476  0.34105737    -0.60000
N1141       N  0.68369766  0.28862284  0.29208730    -0.08600
N1142       N  0.65836247  0.31183651  0.29799951    -0.62900
N1143       N  0.71080115  0.21020017  0.31918447    -0.07600
N1144       N  0.70411254  0.18725706  0.34427052    -0.60100
Mn1145     Mn  0.68340645  0.24753607  0.25089228     1.20200
Mn1146     Mn  0.75200971  0.25150024  0.32017046     1.10100
Cl1147     Cl  0.75127891  0.24879511  0.25197421    -0.88000
C1148       C  0.67406374  0.17072817  0.33206273     0.94300
C1149       C  0.66999426  0.32870611  0.32818696     0.94100
N1150       N  0.95681832  0.21851034  0.06372934    -0.08200
N1151       N  0.93393499  0.21036906  0.08868722    -0.60300
N1152       N  0.53801618  0.19505603  0.03847783    -0.07900
N1153       N  0.56065527  0.16966840  0.04588164    -0.62400
N1154       N  0.53860572  0.21895919  0.06412230    -0.07500
N1155       N  0.56179104  0.21020154  0.08981803    -0.60300
N1156       N  0.95681870  0.19428369  0.03836725    -0.07200
N1157       N  0.93405442  0.16921381  0.04535589    -0.62800
C1158       C  0.91929744  0.17997310  0.07634018     0.94000
C1159       C  0.57593392  0.17979426  0.07752227     0.93800
N1160       N  0.53557444  0.21785810  0.42954746    -0.08400
N1161       N  0.56014510  0.20997936  0.40576718    -0.62100
N1162       N  0.95532333  0.19240381  0.45522560    -0.06500
N1163       N  0.93378966  0.16577373  0.44935216    -0.62100
N1164       N  0.95352733  0.21444243  0.42851973    -0.08400
N1165       N  0.93079036  0.20245277  0.40317949    -0.61200
N1166       N  0.53656049  0.19500255  0.45554050    -0.06100
N1167       N  0.56166995  0.17146791  0.45034787    -0.62200
Mn1168     Mn  0.99664421  0.19401592  0.49683067     1.18400
C1169       C  0.57676662  0.18142739  0.41967865     0.96100
C1170       C  0.91855025  0.17215551  0.41705303     0.96700
N1171       N  0.53771823  0.30132541  0.06384891    -0.08400
N1172       N  0.56225642  0.30702787  0.08907107    -0.64700
N1173       N  0.95565258  0.32637541  0.04134474    -0.07200
N1174       N  0.93171152  0.35019755  0.05086246    -0.65400
N1175       N  0.95657970  0.30080597  0.06456512    -0.07900
N1176       N  0.93326144  0.30625601  0.08985380    -0.65000
N1177       N  0.53717911  0.32683091  0.04046982    -0.06800
N1178       N  0.56128099  0.35091675  0.04997963    -0.65700
Mn1179     Mn  0.99742312  0.26006676  0.06471345     1.10700
C1180       C  0.57680545  0.33777957  0.08024631     0.97300
C1181       C  0.91786571  0.33691591  0.08107489     0.97400
N1182       N  0.95099706  0.29926129  0.43074554    -0.07900
N1183       N  0.92703512  0.30730232  0.40549383    -0.63300
N1184       N  0.53343883  0.32647129  0.45325610    -0.07300
N1185       N  0.55676914  0.35072138  0.44413646    -0.60000
N1186       N  0.53245344  0.30098655  0.42898254    -0.08600
N1187       N  0.55524655  0.30706157  0.40346812    -0.62900
N1188       N  0.95199204  0.32391518  0.45595421    -0.07600
N1189       N  0.92863663  0.34870724  0.44834786    -0.60100
Mn1190     Mn  0.99289996  0.25825155  0.42823785     1.20200
Mn1191     Mn  0.99472106  0.32710093  0.49759970     1.10100
Cl1192     Cl  0.99543097  0.25999682  0.49677717    -0.88000
C1193       C  0.91262424  0.33772659  0.41731485     0.94300
C1194       C  0.57019805  0.33800268  0.41302893     0.94100
C1195       C  0.84968550  0.09993771  0.39902581     0.84400
C1196       C  0.87357683  0.12542761  0.42059168    -0.55800
C1197       C  0.89344683  0.14691578  0.39986278     0.07300
C1198       C  0.88795268  0.14024688  0.35905676     0.18300
C1199       C  0.82734615  0.12298304  0.37408391    -0.56500
C1200       C  0.84720386  0.14411164  0.35329921     0.07400
C1201       C  0.87503210  0.07986778  0.37459052    -0.56100
C1202       C  0.89509711  0.10070421  0.35357234     0.08000
H1203       H  0.87450172  0.12654643  0.44980374     0.12500
H1204       H  0.90421107  0.15742742  0.34208828    -0.01700
H1205       H  0.79825649  0.12378653  0.37406186     0.12800
H1206       H  0.87682342  0.05152710  0.37378222     0.12600
N1207       N  0.67830179  0.04284551  0.45839131    -0.08200
N1208       N  0.65424692  0.06736653  0.45182194    -0.60300
N1209       N  0.70233250  0.46251795  0.43429185    -0.07900
N1210       N  0.69565698  0.43884613  0.40911279    -0.62400
N1211       N  0.67692583  0.46280310  0.45814665    -0.07500
N1212       N  0.65188907  0.43950828  0.44912042    -0.60300
N1213       N  0.70251230  0.04233411  0.43327688    -0.07200
N1214       N  0.69489662  0.06619262  0.40871606    -0.62800
C1215       C  0.66480197  0.08179828  0.42085848     0.94000
C1216       C  0.66432963  0.42465705  0.41858525     0.93800
N1217       N  0.81213579  0.46014821  0.46017232    -0.08400
N1218       N  0.83773550  0.43808543  0.45096433    -0.60900
N1219       N  0.78812495  0.04037524  0.43505591    -0.06500
N1220       N  0.79582744  0.06287588  0.40995404    -0.62100
N1221       N  0.81373143  0.03988226  0.45997822    -0.08400
N1222       N  0.83935477  0.06205879  0.45234927    -0.61200
N1223       N  0.78673152  0.46060197  0.43496936    -0.06100
N1224       N  0.79459969  0.43877157  0.40846590    -0.62200
Mn1225     Mn  0.74491580  0.00156394  0.43375581     1.18400
C1226       C  0.82599683  0.42414861  0.41910405     0.96100
C1227       C  0.82747033  0.07669176  0.42145547     0.96700
N1228       N  0.67891467  0.46419227  0.04496315    -0.08400
N1229       N  0.65500392  0.44015020  0.05310925    -0.64700
N1230       N  0.70422218  0.04487731  0.06913511    -0.07200
N1231       N  0.69569214  0.06866355  0.09375144    -0.65400
N1232       N  0.67965675  0.04394189  0.04310153    -0.07900
N1233       N  0.65457210  0.06733167  0.04893149    -0.65000
N1234       N  0.70495225  0.46516826  0.06954338    -0.06800
N1235       N  0.69975862  0.44159609  0.09424727    -0.65700
Mn1236     Mn  0.67758296  0.00323936  0.00118638     1.10700
C1237       C  0.66868868  0.42613875  0.08381297     0.97300
C1238       C  0.66480957  0.08257024  0.08041270     0.97400
N1239       N  0.81478642  0.04268927  0.04447279    -0.07900
N1240       N  0.83988646  0.06640743  0.05010956    -0.63300
N1241       N  0.78923118  0.46446927  0.07084779    -0.07300
N1242       N  0.79572896  0.44133941  0.09602764    -0.60000
N1243       N  0.81412888  0.46299023  0.04647207    -0.08600
N1244       N  0.83853286  0.43919158  0.05502726    -0.62900
N1245       N  0.79095917  0.04438124  0.06994385    -0.07600
N1246       N  0.80001818  0.06900480  0.09396467    -0.60100
Mn1247     Mn  0.81441240  0.00120755  0.00282402     1.20200
Mn1248     Mn  0.74732089  0.00500483  0.07075479     1.10100
Cl1249     Cl  0.74604570  0.00273570  0.00215083    -0.88000
C1250       C  0.83044944  0.08267841  0.08088683     0.94300
C1251       C  0.82641649  0.42576448  0.08585848     0.94100
C1252       C  0.64688671  0.35273411  0.34943304     0.84400
C1253       C  0.62494596  0.37846551  0.32692059    -0.55800
C1254       C  0.60342688  0.39997459  0.34659518     0.07300
C1255       C  0.60625105  0.39356927  0.38779644     0.18300
C1256       C  0.66771170  0.37538974  0.37654933    -0.56500
C1257       C  0.64689347  0.39701290  0.39660573     0.07400
C1258       C  0.61970466  0.33312901  0.37120594    -0.56100
C1259       C  0.59843336  0.35404115  0.39163301     0.08000
H1260       H  0.62673031  0.37989224  0.29786886     0.12500
H1261       H  0.58909738  0.41113138  0.40403022    -0.01700
H1262       H  0.69680372  0.37553999  0.37856865     0.12800
H1263       H  0.61759664  0.30479464  0.37055347     0.12600
N1264       N  0.95993982  0.04824510  0.31343350    -0.08200
N1265       N  0.95160174  0.07039065  0.33952834    -0.60300
N1266       N  0.93373362  0.46844330  0.28845381    -0.07900
N1267       N  0.90826350  0.44586065  0.29527333    -0.62400
N1268       N  0.95882306  0.46814806  0.31389967    -0.07500
N1269       N  0.95071922  0.44537436  0.33872015    -0.60300
N1270       N  0.93489727  0.04837497  0.28787979    -0.07200
N1271       N  0.90915498  0.07055137  0.29634840    -0.62800
C1272       C  0.92033029  0.08490034  0.32818225     0.94000
C1273       C  0.91950833  0.43111437  0.32628697     0.93800
N1274       N  0.95642956  0.46345943  0.17873112    -0.08400
N1275       N  0.94685332  0.43883854  0.15483207    -0.60900
N1276       N  0.93326434  0.04496823  0.20197593    -0.06500
N1277       N  0.90869897  0.06863709  0.19360006    -0.62100
N1278       N  0.95805873  0.04359985  0.17748641    -0.08400
N1279       N  0.95128551  0.06676723  0.15236427    -0.61200
N1280       N  0.93280772  0.46537048  0.20438757    -0.06100
N1281       N  0.90744410  0.44188929  0.19904737    -0.62200
Mn1282     Mn  0.93312012  0.00700727  0.24564798     1.18400
C1283       C  0.91636140  0.42545424  0.16823370     0.96100
C1284       C  0.92053779  0.08216093  0.16273256     0.96700
N1285       N  0.54475303  0.46710293  0.31581849    -0.08400
N1286       N  0.55266858  0.44359965  0.34064307    -0.64700
N1287       N  0.57016514  0.04651673  0.29074723    -0.07200
N1288       N  0.59530842  0.06969734  0.30000847    -0.65400
N1289       N  0.54469141  0.04686485  0.31458247    -0.07900
N1290       N  0.55148777  0.07046973  0.33988823    -0.65000
N1291       N  0.56893032  0.46656049  0.29065303    -0.06800
N1292       N  0.59326953  0.44243471  0.29747460    -0.65700
Mn1293     Mn  0.50206316  0.00749937  0.31514276     1.10700
C1294       C  0.58292964  0.42826236  0.32861005     0.97300
C1295       C  0.58294451  0.08459253  0.33061995     0.97400
N1296       N  0.54269511  0.04310988  0.17871369    -0.07900
N1297       N  0.54837480  0.06637144  0.15376368    -0.63300
N1298       N  0.56830857  0.46446068  0.20547018    -0.07300
N1299       N  0.59372428  0.44134160  0.19957563    -0.60000
N1300       N  0.54379618  0.46321633  0.17935482    -0.08600
N1301       N  0.55272852  0.43949343  0.15472686    -0.62900
N1302       N  0.56850982  0.04424673  0.20354581    -0.07600
N1303       N  0.59270509  0.06796896  0.19536314    -0.60100
Mn1304     Mn  0.50024660  0.00301361  0.17767447     1.20200
Mn1305     Mn  0.56975550  0.00564715  0.24758135     1.10100
Cl1306     Cl  0.50135418  0.00578001  0.24648173    -0.88000
C1307       C  0.57951792  0.08169463  0.16436037     0.94300
C1308       C  0.58383042  0.42588384  0.16802233     0.94100
C1309       C  0.84760193  0.35268938  0.15143245     0.84400
C1310       C  0.87359064  0.37659950  0.17262618    -0.55800
C1311       C  0.89354393  0.39770751  0.15157130     0.07300
C1312       C  0.88535145  0.39273700  0.11073182     0.18300
C1313       C  0.82484751  0.37736918  0.12856778    -0.56500
C1314       C  0.84430536  0.39838822  0.10714036     0.07400
C1315       C  0.87066058  0.33265928  0.12505802    -0.56100
C1316       C  0.89061125  0.35320379  0.10375118     0.08000
H1317       H  0.87533373  0.37748061  0.20182349     0.12500
H1318       H  0.90138762  0.40989215  0.09353672    -0.01700
H1319       H  0.79581998  0.37852809  0.12966460     0.12800
H1320       H  0.87194683  0.30427727  0.12417755     0.12600
C1321       C  0.59852062  0.15584245  0.09980757     0.84400
C1322       C  0.62390854  0.17461486  0.12612511    -0.55800
C1323       C  0.64436131  0.15263114  0.14641522     0.07300
C1324       C  0.63758997  0.11357054  0.13881388     0.18300
C1325       C  0.62237888  0.13168931  0.07770703    -0.56500
C1326       C  0.64294379  0.10955780  0.09791630     0.07400
C1327       C  0.57653566  0.13128578  0.12259644    -0.56100
C1328       C  0.59672853  0.10909349  0.14320113     0.08000
H1329       H  0.62596015  0.20290010  0.12835250     0.12500
H1330       H  0.65429513  0.09563665  0.15539616    -0.01700
H1331       H  0.62262342  0.13169920  0.04850318     0.12800
H1332       H  0.54743221  0.13109901  0.12199227     0.12600
C1333       C  0.89764967  0.15638621  0.09879646     0.84400
C1334       C  0.92101774  0.13132798  0.12072270    -0.55800
C1335       C  0.90214978  0.10945399  0.14173222     0.07300
C1336       C  0.86107576  0.11465269  0.13870135     0.18300
C1337       C  0.87167772  0.13274922  0.07726123    -0.56500
C1338       C  0.85248075  0.11070064  0.09790964     0.07400
C1339       C  0.87474343  0.17550712  0.12605698    -0.56100
C1340       C  0.85568468  0.15386141  0.14699315     0.08000
H1341       H  0.95004655  0.13070763  0.11941298     0.12500
H1342       H  0.84551306  0.09688262  0.15569084    -0.01700
H1343       H  0.86959059  0.13255813  0.04807577     0.12800
H1344       H  0.87322260  0.20381450  0.12836669     0.12600
C1345       C  0.65134300  0.35285925  0.14987248     0.84400
C1346       C  0.67280353  0.37718541  0.12634048    -0.55800
C1347       C  0.65206445  0.39853004  0.10514228     0.07300
C1348       C  0.61127499  0.39345289  0.10968720     0.18300
C1349       C  0.62719618  0.37724799  0.17138764    -0.56500
C1350       C  0.60602989  0.39858333  0.15072388     0.07400
C1351       C  0.62627390  0.33320412  0.12397489    -0.56100
C1352       C  0.60521397  0.35397920  0.10286681     0.08000
H1353       H  0.70189046  0.37798310  0.12695913     0.12500
H1354       H  0.59418189  0.41076170  0.09278706    -0.01700
H1355       H  0.62728865  0.37800104  0.20059824     0.12800
H1356       H  0.62470920  0.30483020  0.12310553     0.12600
C1357       C  0.60105917  0.15783691  0.39904378     0.84400
C1358       C  0.58003850  0.13450782  0.37252980    -0.55800
C1359       C  0.60059639  0.11227786  0.35282574     0.07300
C1360       C  0.64128614  0.11583741  0.36147093     0.18300
C1361       C  0.62326498  0.13240292  0.42205903    -0.56500
C1362       C  0.64443886  0.11021921  0.40271147     0.07400
C1363       C  0.62806915  0.17687424  0.37672516    -0.56100
C1364       C  0.64907039  0.15524345  0.35691497     0.08000
H1365       H  0.55094963  0.13466818  0.37053060     0.12500
H1366       H  0.65827439  0.09803182  0.34533190    -0.01700
H1367       H  0.62181113  0.13152707  0.45115053     0.12800
H1368       H  0.62990464  0.20518797  0.37585897     0.12600
C1369       C  0.89626683  0.40799412  0.34798652     0.84400
C1370       C  0.91733115  0.38347325  0.37262437    -0.55800
C1371       C  0.89624033  0.36274196  0.39265398     0.07300
C1372       C  0.85573709  0.36848476  0.38656136     0.18300
C1373       C  0.87150416  0.38382457  0.32553846    -0.56500
C1374       C  0.85035522  0.36292227  0.34557824     0.07400
C1375       C  0.87158891  0.42854000  0.37278492    -0.56100
C1376       C  0.85047098  0.40808822  0.39314608     0.08000
H1377       H  0.94640463  0.38233540  0.37402979     0.12500
H1378       H  0.83879814  0.35157336  0.40314628    -0.01700
H1379       H  0.87199908  0.38209874  0.29637852     0.12800
H1380       H  0.87112669  0.45691072  0.37442139     0.12600
N1381       N  0.81799175  0.20768701  0.71131140    -0.08200
N1382       N  0.84328911  0.18485211  0.70357716    -0.60300
N1383       N  0.79174263  0.28690508  0.68468941    -0.07900
N1384       N  0.79692640  0.31141417  0.66087217    -0.62400
N1385       N  0.81692633  0.28810833  0.70996435    -0.07500
N1386       N  0.83975441  0.31347582  0.70393609    -0.60300
N1387       N  0.79241661  0.20656686  0.68640275    -0.07200
N1388       N  0.79970065  0.18291106  0.66153600    -0.62800
C1389       C  0.83110688  0.16890322  0.67290666     0.94000
C1390       C  0.82647999  0.32834705  0.67367502     0.93800
N1391       N  0.68354277  0.28682169  0.70811681    -0.08400
N1392       N  0.66048137  0.31231473  0.70181931    -0.60900
N1393       N  0.70906336  0.20571977  0.68520572    -0.06500
N1394       N  0.70101007  0.18189801  0.66035009    -0.62100
N1395       N  0.68471931  0.20623454  0.71000461    -0.08400
N1396       N  0.65971645  0.18281642  0.70256621    -0.61200
N1397       N  0.70822626  0.28626305  0.68358903    -0.06100
N1398       N  0.70250190  0.31128632  0.66011802    -0.62200
Mn1399     Mn  0.75034442  0.24627665  0.68385160     1.18400
C1400       C  0.67312498  0.32795053  0.67228278     0.96100
C1401       C  0.67056288  0.16721745  0.67193329     0.96700
N1402       N  0.81800339  0.29135170  0.79385799    -0.08400
N1403       N  0.84122903  0.31694544  0.79869129    -0.64700
N1404       N  0.79430677  0.21224200  0.82011107    -0.07200
N1405       N  0.79973992  0.18771774  0.84391968    -0.65400
N1406       N  0.81943928  0.21149357  0.79602103    -0.07900
N1407       N  0.84304343  0.18669185  0.80329168    -0.65000
N1408       N  0.79399413  0.29221471  0.81913175    -0.06800
N1409       N  0.80090663  0.31821414  0.84218769    -0.65700
Mn1410     Mn  0.81927434  0.24956922  0.75279267     1.10700
C1411       C  0.83026177  0.33356557  0.82874034     0.97300
C1412       C  0.83004006  0.17205610  0.83306197     0.97400
N1413       N  0.68593626  0.20860754  0.79359018    -0.07900
N1414       N  0.66201606  0.18454126  0.80076895    -0.63300
N1415       N  0.70887148  0.29050257  0.81737212    -0.07300
N1416       N  0.70118848  0.31517464  0.84105733    -0.60000
N1417       N  0.68369767  0.28862289  0.79208721    -0.08600
N1418       N  0.65836237  0.31183644  0.79799957    -0.62900
N1419       N  0.71080124  0.21020004  0.81918433    -0.07600
N1420       N  0.70411253  0.18725704  0.84427043    -0.60100
Mn1421     Mn  0.68340646  0.24753608  0.75089225     1.20200
Mn1422     Mn  0.75200973  0.25150018  0.82017042     1.10100
Cl1423     Cl  0.75127885  0.24879508  0.75197414    -0.88000
C1424       C  0.67406362  0.17072832  0.83206265     0.94300
C1425       C  0.66999421  0.32870595  0.82818707     0.94100
N1426       N  0.95681820  0.21851041  0.56372929    -0.08200
N1427       N  0.93393507  0.21036895  0.58868733    -0.60300
N1428       N  0.53801604  0.19505602  0.53847792    -0.07900
N1429       N  0.56065525  0.16966850  0.54588165    -0.62400
N1430       N  0.53860569  0.21895928  0.56412232    -0.07500
N1431       N  0.56179109  0.21020169  0.58981795    -0.60300
N1432       N  0.95681879  0.19428367  0.53836731    -0.07200
N1433       N  0.93405451  0.16921374  0.54535588    -0.62800
C1434       C  0.91929757  0.17997297  0.57634022     0.94000
C1435       C  0.57593382  0.17979431  0.57752230     0.93800
N1436       N  0.53557451  0.21785811  0.92954754    -0.08400
N1437       N  0.56014510  0.20997937  0.90576724    -0.62100
N1438       N  0.95532342  0.19240370  0.95522560    -0.06500
N1439       N  0.93378973  0.16577363  0.94935204    -0.62100
N1440       N  0.95352752  0.21444236  0.92851977    -0.08400
N1441       N  0.93079039  0.20245285  0.90317962    -0.61200
N1442       N  0.53656060  0.19500254  0.95554058    -0.06100
N1443       N  0.56166995  0.17146783  0.95034784    -0.62200
Mn1444     Mn  0.99664424  0.19401588  0.99683072     1.18400
C1445       C  0.57676672  0.18142748  0.91967873     0.96100
C1446       C  0.91855030  0.17215542  0.91705296     0.96700
N1447       N  0.53771819  0.30132548  0.56384896    -0.08400
N1448       N  0.56225632  0.30702802  0.58907112    -0.64700
N1449       N  0.95565242  0.32637534  0.54134470    -0.07200
N1450       N  0.93171148  0.35019760  0.55086247    -0.65400
N1451       N  0.95657966  0.30080593  0.56456512    -0.07900
N1452       N  0.93326129  0.30625601  0.58985365    -0.65000
N1453       N  0.53717911  0.32683091  0.54046976    -0.06800
N1454       N  0.56128092  0.35091676  0.54997963    -0.65700
Mn1455     Mn  0.99742309  0.26006673  0.56471346     1.10700
C1456       C  0.57680553  0.33777959  0.58024622     0.97300
C1457       C  0.91786567  0.33691597  0.58107485     0.97400
N1458       N  0.95099710  0.29926127  0.93074556    -0.07900
N1459       N  0.92703504  0.30730226  0.90549391    -0.63300
N1460       N  0.53343890  0.32647134  0.95325625    -0.07300
N1461       N  0.55676913  0.35072146  0.94413641    -0.60000
N1462       N  0.53245343  0.30098668  0.92898269    -0.08600
N1463       N  0.55524663  0.30706159  0.90346828    -0.62900
N1464       N  0.95199214  0.32391516  0.95595419    -0.07600
N1465       N  0.92863664  0.34870722  0.94834790    -0.60100
Mn1466     Mn  0.99289995  0.25825151  0.92823792     1.20200
Mn1467     Mn  0.99472112  0.32710086  0.99759974     1.10100
Cl1468     Cl  0.99543099  0.25999681  0.99677720    -0.88000
C1469       C  0.91262421  0.33772659  0.91731486     0.94300
C1470       C  0.57019809  0.33800270  0.91302895     0.94100
C1471       C  0.84968530  0.09993754  0.89902573     0.84400
C1472       C  0.87357669  0.12542740  0.92059167    -0.55800
C1473       C  0.89344671  0.14691562  0.89986268     0.07300
C1474       C  0.88795256  0.14024674  0.85905675     0.18300
C1475       C  0.82734600  0.12298297  0.87408397    -0.56500
C1476       C  0.84720367  0.14411159  0.85329926     0.07400
C1477       C  0.87503199  0.07986760  0.87459061    -0.56100
C1478       C  0.89509707  0.10070397  0.85357243     0.08000
H1479       H  0.87450117  0.12654654  0.94980342     0.12500
H1480       H  0.90421122  0.15742729  0.84208853    -0.01700
H1481       H  0.79825606  0.12378640  0.87406220     0.12800
H1482       H  0.87682337  0.05152662  0.87378268     0.12600
N1483       N  0.67830184  0.04284551  0.95839144    -0.08200
N1484       N  0.65424706  0.06736656  0.95182191    -0.60300
N1485       N  0.70233263  0.46251789  0.93429192    -0.07900
N1486       N  0.69565708  0.43884618  0.90911278    -0.62400
N1487       N  0.67692586  0.46280305  0.95814667    -0.07500
N1488       N  0.65188903  0.43950836  0.94912037    -0.60300
N1489       N  0.70251227  0.04233414  0.93327697    -0.07200
N1490       N  0.69489662  0.06619265  0.90871605    -0.62800
C1491       C  0.66480200  0.08179828  0.92085839     0.94000
C1492       C  0.66432975  0.42465704  0.91858530     0.93800
N1493       N  0.81213586  0.46014823  0.96017235    -0.08400
N1494       N  0.83773558  0.43808554  0.95096432    -0.60900
N1495       N  0.78812491  0.04037528  0.93505598    -0.06500
N1496       N  0.79582737  0.06287591  0.90995408    -0.62100
N1497       N  0.81373151  0.03988221  0.95997817    -0.08400
N1498       N  0.83935477  0.06205878  0.95234929    -0.61200
N1499       N  0.78673155  0.46060190  0.93496934    -0.06100
N1500       N  0.79459966  0.43877149  0.90846586    -0.62200
Mn1501     Mn  0.74491576  0.00156394  0.93375591     1.18400
C1502       C  0.82599682  0.42414851  0.91910409     0.96100
C1503       C  0.82747025  0.07669175  0.92145551     0.96700
N1504       N  0.67891461  0.46419219  0.54496308    -0.08400
N1505       N  0.65500390  0.44015013  0.55310923    -0.64700
N1506       N  0.70422219  0.04487736  0.56913508    -0.07200
N1507       N  0.69569210  0.06866368  0.59375131    -0.65400
N1508       N  0.67965678  0.04394181  0.54310148    -0.07900
N1509       N  0.65457206  0.06733154  0.54893138    -0.65000
N1510       N  0.70495220  0.46516824  0.56954337    -0.06800
N1511       N  0.69975862  0.44159612  0.59424724    -0.65700
Mn1512     Mn  0.67758295  0.00323941  0.50118629     1.10700
C1513       C  0.66868864  0.42613880  0.58381300     0.97300
C1514       C  0.66480948  0.08257022  0.58041261     0.97400
N1515       N  0.81478640  0.04268926  0.54447281    -0.07900
N1516       N  0.83988646  0.06640746  0.55010949    -0.63300
N1517       N  0.78923119  0.46446925  0.57084782    -0.07300
N1518       N  0.79572885  0.44133932  0.59602759    -0.60000
N1519       N  0.81412886  0.46299007  0.54647213    -0.08600
N1520       N  0.83853289  0.43919142  0.55502735    -0.62900
N1521       N  0.79095907  0.04438137  0.56994378    -0.07600
N1522       N  0.80001810  0.06900492  0.59396462    -0.60100
Mn1523     Mn  0.81441233  0.00120745  0.50282407     1.20200
Mn1524     Mn  0.74732092  0.00500486  0.57075476     1.10100
Cl1525     Cl  0.74604567  0.00273564  0.50215074    -0.88000
C1526       C  0.83044947  0.08267841  0.58088682     0.94300
C1527       C  0.82641650  0.42576450  0.58585855     0.94100
C1528       C  0.64688675  0.35273427  0.84943307     0.84400
C1529       C  0.62494598  0.37846551  0.82692065    -0.55800
C1530       C  0.60342688  0.39997461  0.84659524     0.07300
C1531       C  0.60625107  0.39356947  0.88779650     0.18300
C1532       C  0.66771166  0.37538986  0.87654925    -0.56500
C1533       C  0.64689348  0.39701304  0.89660574     0.07400
C1534       C  0.61970467  0.33312925  0.87120593    -0.56100
C1535       C  0.59843324  0.35404142  0.89163298     0.08000
H1536       H  0.62673044  0.37989251  0.79786893     0.12500
H1537       H  0.58909735  0.41113202  0.90403011    -0.01700
H1538       H  0.69680364  0.37553946  0.87856906     0.12800
H1539       H  0.61759671  0.30479519  0.87055346     0.12600
N1540       N  0.95993995  0.04824519  0.81343348    -0.08200
N1541       N  0.95160177  0.07039059  0.83952841    -0.60300
N1542       N  0.93373343  0.46844335  0.78845380    -0.07900
N1543       N  0.90826333  0.44586072  0.79527337    -0.62400
N1544       N  0.95882299  0.46814802  0.81389961    -0.07500
N1545       N  0.95071918  0.44537441  0.83872011    -0.60300
N1546       N  0.93489730  0.04837490  0.78787986    -0.07200
N1547       N  0.90915496  0.07055116  0.79634857    -0.62800
C1548       C  0.92033031  0.08490023  0.82818236     0.94000
C1549       C  0.91950836  0.43111431  0.82628688     0.93800
N1550       N  0.95642944  0.46345956  0.67873123    -0.08400
N1551       N  0.94685339  0.43883855  0.65483220    -0.60900
N1552       N  0.93326437  0.04496822  0.70197597    -0.06500
N1553       N  0.90869905  0.06863714  0.69360016    -0.62100
N1554       N  0.95805880  0.04359992  0.67748647    -0.08400
N1555       N  0.95128548  0.06676718  0.65236423    -0.61200
N1556       N  0.93280767  0.46537056  0.70438772    -0.06100
N1557       N  0.90744406  0.44188938  0.69904735    -0.62200
Mn1558     Mn  0.93312020  0.00700733  0.74564805     1.18400
C1559       C  0.91636140  0.42545429  0.66823368     0.96100
C1560       C  0.92053775  0.08216090  0.66273255     0.96700
N1561       N  0.54475301  0.46710303  0.81581853    -0.08400
N1562       N  0.55266856  0.44359961  0.84064291    -0.64700
N1563       N  0.57016516  0.04651682  0.79074723    -0.07200
N1564       N  0.59530857  0.06969727  0.80000855    -0.65400
N1565       N  0.54469142  0.04686487  0.81458254    -0.07900
N1566       N  0.55148779  0.07046965  0.83988833    -0.65000
N1567       N  0.56893030  0.46656055  0.79065301    -0.06800
N1568       N  0.59326960  0.44243484  0.79747459    -0.65700
Mn1569     Mn  0.50206321  0.00749943  0.81514275     1.10700
C1570       C  0.58292979  0.42826244  0.82861005     0.97300
C1571       C  0.58294452  0.08459259  0.83061993     0.97400
N1572       N  0.54269516  0.04310991  0.67871370    -0.07900
N1573       N  0.54837498  0.06637132  0.65376357    -0.63300
N1574       N  0.56830844  0.46446069  0.70547015    -0.07300
N1575       N  0.59372430  0.44134177  0.69957543    -0.60000
N1576       N  0.54379614  0.46321644  0.67935474    -0.08600
N1577       N  0.55272844  0.43949349  0.65472678    -0.62900
N1578       N  0.56850991  0.04424671  0.70354578    -0.07600
N1579       N  0.59270506  0.06796901  0.69536304    -0.60100
Mn1580     Mn  0.50024665  0.00301362  0.67767441     1.20200
Mn1581     Mn  0.56975558  0.00564716  0.74758132     1.10100
Cl1582     Cl  0.50135420  0.00578006  0.74648168    -0.88000
C1583       C  0.57951786  0.08169481  0.66436038     0.94300
C1584       C  0.58383037  0.42588391  0.66802223     0.94100
C1585       C  0.84760183  0.35268944  0.65143230     0.84400
C1586       C  0.87359063  0.37659946  0.67262604    -0.55800
C1587       C  0.89354392  0.39770753  0.65157110     0.07300
C1588       C  0.88535144  0.39273706  0.61073173     0.18300
C1589       C  0.82484743  0.37736925  0.62856774    -0.56500
C1590       C  0.84430522  0.39838821  0.60714024     0.07400
C1591       C  0.87066048  0.33265928  0.62505793    -0.56100
C1592       C  0.89061128  0.35320383  0.60375113     0.08000
H1593       H  0.87533385  0.37748032  0.70182303     0.12500
H1594       H  0.90138789  0.40989258  0.59353709    -0.01700
H1595       H  0.79581954  0.37852790  0.62966459     0.12800
H1596       H  0.87194631  0.30427728  0.62417720     0.12600
C1597       C  0.59852050  0.15584250  0.59980759     0.84400
C1598       C  0.62390855  0.17461487  0.62612508    -0.55800
C1599       C  0.64436127  0.15263113  0.64641525     0.07300
C1600       C  0.63758996  0.11357055  0.63881393     0.18300
C1601       C  0.62237883  0.13168931  0.57770716    -0.56500
C1602       C  0.64294386  0.10955790  0.59791635     0.07400
C1603       C  0.57653562  0.13128591  0.62259648    -0.56100
C1604       C  0.59672844  0.10909356  0.64320108     0.08000
H1605       H  0.62596043  0.20290016  0.62835246     0.12500
H1606       H  0.65429522  0.09563663  0.65539621    -0.01700
H1607       H  0.62262349  0.13169917  0.54850326     0.12800
H1608       H  0.54743188  0.13109920  0.62199231     0.12600
C1609       C  0.89764964  0.15638607  0.59879642     0.84400
C1610       C  0.92101768  0.13132789  0.62072281    -0.55800
C1611       C  0.90214957  0.10945398  0.64173231     0.07300
C1612       C  0.86107564  0.11465281  0.63870145     0.18300
C1613       C  0.87167776  0.13274919  0.57726113    -0.56500
C1614       C  0.85248078  0.11070065  0.59790964     0.07400
C1615       C  0.87474340  0.17550700  0.62605699    -0.56100
C1616       C  0.85568460  0.15386140  0.64699322     0.08000
H1617       H  0.95004617  0.13070764  0.61941369     0.12500
H1618       H  0.84551273  0.09688292  0.65569109    -0.01700
H1619       H  0.86959078  0.13255798  0.54807561     0.12800
H1620       H  0.87322263  0.20381435  0.62836669     0.12600
C1621       C  0.65134308  0.35285936  0.64987232     0.84400
C1622       C  0.67280359  0.37718548  0.62634042    -0.55800
C1623       C  0.65206460  0.39853000  0.60514216     0.07300
C1624       C  0.61127508  0.39345287  0.60968714     0.18300
C1625       C  0.62719616  0.37724800  0.67138747    -0.56500
C1626       C  0.60602986  0.39858334  0.65072372     0.07400
C1627       C  0.62627394  0.33320428  0.62397486    -0.56100
C1628       C  0.60521410  0.35397924  0.60286667     0.08000
H1629       H  0.70189086  0.37798331  0.62695948     0.12500
H1630       H  0.59418194  0.41076160  0.59278703    -0.01700
H1631       H  0.62728859  0.37800101  0.70059774     0.12800
H1632       H  0.62470938  0.30483032  0.62310539     0.12600
C1633       C  0.60105903  0.15783699  0.89904372     0.84400
C1634       C  0.58003843  0.13450776  0.87252985    -0.55800
C1635       C  0.60059633  0.11227791  0.85282578     0.07300
C1636       C  0.64128616  0.11583743  0.86147098     0.18300
C1637       C  0.62326493  0.13240295  0.92205888    -0.56500
C1638       C  0.64443889  0.11021928  0.90271141     0.07400
C1639       C  0.62806916  0.17687427  0.87672514    -0.56100
C1640       C  0.64907041  0.15524343  0.85691505     0.08000
H1641       H  0.55094926  0.13466815  0.87053027     0.12500
H1642       H  0.65827460  0.09803210  0.84533187    -0.01700
H1643       H  0.62181112  0.13152685  0.95115039     0.12800
H1644       H  0.62990489  0.20518800  0.87585886     0.12600
C1645       C  0.89626690  0.40799417  0.84798650     0.84400
C1646       C  0.91733123  0.38347324  0.87262430    -0.55800
C1647       C  0.89624033  0.36274194  0.89265381     0.07300
C1648       C  0.85573705  0.36848463  0.88656121     0.18300
C1649       C  0.87150416  0.38382449  0.82553853    -0.56500
C1650       C  0.85035505  0.36292233  0.84557823     0.07400
C1651       C  0.87158885  0.42854004  0.87278485    -0.56100
C1652       C  0.85047104  0.40808813  0.89314608     0.08000
H1653       H  0.94640475  0.38233514  0.87402995     0.12500
H1654       H  0.83879823  0.35157312  0.90314601    -0.01700
H1655       H  0.87199851  0.38209890  0.79637862     0.12800
H1656       H  0.87112645  0.45691076  0.87442127     0.12600
N1657       N  0.81799176  0.70768703  0.21131135    -0.08200
N1658       N  0.84328912  0.68485201  0.20357729    -0.60300
N1659       N  0.79174267  0.78690507  0.18468946    -0.07900
N1660       N  0.79692643  0.81141415  0.16087218    -0.62400
N1661       N  0.81692638  0.78810830  0.20996437    -0.07500
N1662       N  0.83975437  0.81347584  0.20393614    -0.60300
N1663       N  0.79241648  0.70656673  0.18640284    -0.07200
N1664       N  0.79970054  0.68291098  0.16153605    -0.62800
C1665       C  0.83110694  0.66890328  0.17290666     0.94000
C1666       C  0.82647988  0.82834712  0.17367513     0.93800
N1667       N  0.68354274  0.78682160  0.20811675    -0.08400
N1668       N  0.66048135  0.81231467  0.20181930    -0.60900
N1669       N  0.70906334  0.70571978  0.18520581    -0.06500
N1670       N  0.70101006  0.68189802  0.16035018    -0.62100
N1671       N  0.68471940  0.70623440  0.21000480    -0.08400
N1672       N  0.65971639  0.68281644  0.20256631    -0.61200
N1673       N  0.70822636  0.78626303  0.18358910    -0.06100
N1674       N  0.70250191  0.81128620  0.16011803    -0.62200
Mn1675     Mn  0.75034443  0.74627667  0.18385170     1.18400
C1676       C  0.67312501  0.82795046  0.17228282     0.96100
C1677       C  0.67056283  0.66721751  0.17193335     0.96700
N1678       N  0.81800345  0.79135164  0.29385805    -0.08400
N1679       N  0.84122909  0.81694539  0.29869123    -0.64700
N1680       N  0.79430674  0.71224205  0.32011105    -0.07200
N1681       N  0.79973992  0.68771785  0.34391967    -0.65400
N1682       N  0.81943927  0.71149361  0.29602099    -0.07900
N1683       N  0.84304327  0.68669175  0.30329156    -0.65000
N1684       N  0.79399410  0.79221481  0.31913174    -0.06800
N1685       N  0.80090666  0.81821418  0.34218773    -0.65700
Mn1686     Mn  0.81927432  0.74956924  0.25279267     1.10700
C1687       C  0.83026181  0.83356552  0.32874031     0.97300
C1688       C  0.83004002  0.67205613  0.33306197     0.97400
N1689       N  0.68593631  0.70860749  0.29359024    -0.07900
N1690       N  0.66201612  0.68454127  0.30076916    -0.63300
N1691       N  0.70887152  0.79050270  0.31737214    -0.07300
N1692       N  0.70118843  0.81517472  0.34105741    -0.60000
N1693       N  0.68369766  0.78862284  0.29208732    -0.08600
N1694       N  0.65836243  0.81183650  0.29799950    -0.62900
N1695       N  0.71080120  0.71020014  0.31918445    -0.07600
N1696       N  0.70411254  0.68725707  0.34427049    -0.60100
Mn1697     Mn  0.68340648  0.74753605  0.25089227     1.20200
Mn1698     Mn  0.75200972  0.75150023  0.32017048     1.10100
Cl1699     Cl  0.75127885  0.74879512  0.25197421    -0.88000
C1700       C  0.67406371  0.67072821  0.33206272     0.94300
C1701       C  0.66999421  0.82870599  0.32818703     0.94100
N1702       N  0.95681832  0.71851032  0.06372931    -0.08200
N1703       N  0.93393512  0.71036903  0.08868733    -0.60300
N1704       N  0.53801610  0.69505597  0.03847789    -0.07900
N1705       N  0.56065527  0.66966840  0.04588165    -0.62400
N1706       N  0.53860570  0.71895921  0.06412230    -0.07500
N1707       N  0.56179105  0.71020163  0.08981799    -0.60300
N1708       N  0.95681872  0.69428366  0.03836723    -0.07200
N1709       N  0.93405445  0.66921377  0.04535589    -0.62800
C1710       C  0.91929756  0.67997306  0.07634026     0.94000
C1711       C  0.57593391  0.67979432  0.07752224     0.93800
N1712       N  0.53557448  0.71785815  0.42954748    -0.08400
N1713       N  0.56014508  0.70997940  0.40576718    -0.62100
N1714       N  0.95532335  0.69240378  0.45522560    -0.06500
N1715       N  0.93378969  0.66577371  0.44935210    -0.62100
N1716       N  0.95352739  0.71444242  0.42851975    -0.08400
N1717       N  0.93079033  0.70245284  0.40317957    -0.61200
N1718       N  0.53656054  0.69500254  0.45554048    -0.06100
N1719       N  0.56166998  0.67146789  0.45034782    -0.62200
Mn1720     Mn  0.99664418  0.69401587  0.49683067     1.18400
C1721       C  0.57676669  0.68142749  0.41967869     0.96100
C1722       C  0.91855033  0.67215545  0.41705297     0.96700
N1723       N  0.53771823  0.80132538  0.06384884    -0.08400
N1724       N  0.56225633  0.80702786  0.08907106    -0.64700
N1725       N  0.95565249  0.82637545  0.04134476    -0.07200
N1726       N  0.93171149  0.85019764  0.05086251    -0.65400
N1727       N  0.95657964  0.80080597  0.06456509    -0.07900
N1728       N  0.93326135  0.80625598  0.08985374    -0.65000
N1729       N  0.53717901  0.82683098  0.04046987    -0.06800
N1730       N  0.56128098  0.85091675  0.04997967    -0.65700
Mn1731     Mn  0.99742308  0.76006678  0.06471344     1.10700
C1732       C  0.57680546  0.83777952  0.08024629     0.97300
C1733       C  0.91786570  0.83691595  0.08107490     0.97400
N1734       N  0.95099718  0.79926129  0.43074550    -0.07900
N1735       N  0.92703516  0.80730230  0.40549386    -0.63300
N1736       N  0.53343872  0.82647138  0.45325603    -0.07300
N1737       N  0.55676913  0.85072141  0.44413647    -0.60000
N1738       N  0.53245343  0.80098657  0.42898259    -0.08600
N1739       N  0.55524650  0.80706157  0.40346813    -0.62900
N1740       N  0.95199211  0.82391516  0.45595417    -0.07600
N1741       N  0.92863660  0.84870721  0.44834790    -0.60100
Mn1742     Mn  0.99289999  0.75825153  0.42823786     1.20200
Mn1743     Mn  0.99472110  0.82710087  0.49759971     1.10100
Cl1744     Cl  0.99543098  0.75999682  0.49677718    -0.88000
C1745       C  0.91262422  0.83772656  0.41731488     0.94300
C1746       C  0.57019802  0.83800266  0.41302896     0.94100
C1747       C  0.84968538  0.59993773  0.39902583     0.84400
C1748       C  0.87357683  0.62542752  0.42059171    -0.55800
C1749       C  0.89344677  0.64691577  0.39986278     0.07300
C1750       C  0.88795259  0.64024685  0.35905676     0.18300
C1751       C  0.82734601  0.62298305  0.37408398    -0.56500
C1752       C  0.84720369  0.64411168  0.35329932     0.07400
C1753       C  0.87503206  0.57986782  0.37459047    -0.56100
C1754       C  0.89509713  0.60070422  0.35357230     0.08000
H1755       H  0.87450145  0.62654655  0.44980379     0.12500
H1756       H  0.90421112  0.65742739  0.34208827    -0.01700
H1757       H  0.79825606  0.62378678  0.37406232     0.12800
H1758       H  0.87682338  0.55152714  0.37378213     0.12600
N1759       N  0.67830184  0.54284552  0.45839133    -0.08200
N1760       N  0.65424696  0.56736649  0.45182185    -0.60300
N1761       N  0.70233257  0.96251792  0.43429185    -0.07900
N1762       N  0.69565696  0.93884615  0.40911277    -0.62400
N1763       N  0.67692586  0.96280309  0.45814661    -0.07500
N1764       N  0.65188904  0.93950833  0.44912038    -0.60300
N1765       N  0.70251230  0.54233411  0.43327689    -0.07200
N1766       N  0.69489663  0.56619267  0.40871606    -0.62800
C1767       C  0.66480201  0.58179833  0.42085846     0.94000
C1768       C  0.66432966  0.92465704  0.41858529     0.93800
N1769       N  0.81213578  0.96014825  0.46017238    -0.08400
N1770       N  0.83773545  0.93808546  0.45096438    -0.60900
N1771       N  0.78812497  0.54037525  0.43505599    -0.06500
N1772       N  0.79582746  0.56287588  0.40995407    -0.62100
N1773       N  0.81373153  0.53988211  0.45997822    -0.08400
N1774       N  0.83935479  0.56205870  0.45234933    -0.61200
N1775       N  0.78673158  0.96060202  0.43496934    -0.06100
N1776       N  0.79459969  0.93877156  0.40846590    -0.62200
Mn1777     Mn  0.74491575  0.50156394  0.43375585     1.18400
C1778       C  0.82599683  0.92414860  0.41910406     0.96100
C1779       C  0.82747031  0.57669174  0.42145554     0.96700
N1780       N  0.67891463  0.96419227  0.04496318    -0.08400
N1781       N  0.65500390  0.94015019  0.05310921    -0.64700
N1782       N  0.70422220  0.54487731  0.06913505    -0.07200
N1783       N  0.69569209  0.56866357  0.09375135    -0.65400
N1784       N  0.67965678  0.54394184  0.04310151    -0.07900
N1785       N  0.65457213  0.56733163  0.04893148    -0.65000
N1786       N  0.70495220  0.96516825  0.06954346    -0.06800
N1787       N  0.69975851  0.94159611  0.09424736    -0.65700
Mn1788     Mn  0.67758294  0.50323936  0.00118636     1.10700
C1789       C  0.66868858  0.92613877  0.08381300     0.97300
C1790       C  0.66480948  0.58257018  0.08041273     0.97400
N1791       N  0.81478638  0.54268932  0.04447273    -0.07900
N1792       N  0.83988647  0.56640746  0.05010956    -0.63300
N1793       N  0.78923114  0.96446930  0.07084786    -0.07300
N1794       N  0.79572890  0.94133937  0.09602765    -0.60000
N1795       N  0.81412877  0.96299024  0.04647211    -0.08600
N1796       N  0.83853281  0.93919161  0.05502731    -0.62900
N1797       N  0.79095917  0.54438125  0.06994381    -0.07600
N1798       N  0.80001816  0.56900486  0.09396460    -0.60100
Mn1799     Mn  0.81441241  0.50120752  0.00282401     1.20200
Mn1800     Mn  0.74732089  0.50500480  0.07075473     1.10100
Cl1801     Cl  0.74604570  0.50273567  0.00215076    -0.88000
C1802       C  0.83044941  0.58267849  0.08088678     0.94300
C1803       C  0.82641643  0.92576445  0.08585849     0.94100
C1804       C  0.64688664  0.85273421  0.34943302     0.84400
C1805       C  0.62494593  0.87846552  0.32692058    -0.55800
C1806       C  0.60342682  0.89997457  0.34659518     0.07300
C1807       C  0.60625097  0.89356936  0.38779648     0.18300
C1808       C  0.66771162  0.87538973  0.37654935    -0.56500
C1809       C  0.64689337  0.89701299  0.39660576     0.07400
C1810       C  0.61970462  0.83312921  0.37120594    -0.56100
C1811       C  0.59843323  0.85404134  0.39163304     0.08000
H1812       H  0.62673035  0.87989235  0.29786887     0.12500
H1813       H  0.58909703  0.91113147  0.40403017    -0.01700
H1814       H  0.69680334  0.87553989  0.37856865     0.12800
H1815       H  0.61759665  0.80479514  0.37055339     0.12600
N1816       N  0.95993991  0.54824520  0.31343348    -0.08200
N1817       N  0.95160173  0.57039065  0.33952838    -0.60300
N1818       N  0.93373343  0.96844337  0.28845385    -0.07900
N1819       N  0.90826342  0.94586064  0.29527332    -0.62400
N1820       N  0.95882297  0.96814805  0.31389965    -0.07500
N1821       N  0.95071917  0.94537438  0.33872015    -0.60300
N1822       N  0.93489731  0.54837483  0.28787982    -0.07200
N1823       N  0.90915508  0.57055125  0.29634837    -0.62800
C1824       C  0.92033034  0.58490031  0.32818223     0.94000
C1825       C  0.91950830  0.93111437  0.32628695     0.93800
N1826       N  0.95642946  0.96345952  0.17873112    -0.08400
N1827       N  0.94685339  0.93883849  0.15483214    -0.60900
N1828       N  0.93326437  0.54496821  0.20197592    -0.06500
N1829       N  0.90869898  0.56863707  0.19360013    -0.62100
N1830       N  0.95805879  0.54359985  0.17748638    -0.08400
N1831       N  0.95128546  0.56676718  0.15236424    -0.61200
N1832       N  0.93280766  0.96537051  0.20438759    -0.06100
N1833       N  0.90744402  0.94188936  0.19904729    -0.62200
Mn1834     Mn  0.93312020  0.50700725  0.24564800     1.18400
C1835       C  0.91636139  0.92545429  0.16823367     0.96100
C1836       C  0.92053776  0.58216095  0.16273262     0.96700
N1837       N  0.54475299  0.96710291  0.31581847    -0.08400
N1838       N  0.55266863  0.94359957  0.34064294    -0.64700
N1839       N  0.57016523  0.54651673  0.29074728    -0.07200
N1840       N  0.59530849  0.56969738  0.30000848    -0.65400
N1841       N  0.54469143  0.54686488  0.31458247    -0.07900
N1842       N  0.55148777  0.57046964  0.33988832    -0.65000
N1843       N  0.56893031  0.96656048  0.29065304    -0.06800
N1844       N  0.59326960  0.94243475  0.29747463    -0.65700
Mn1845     Mn  0.50206323  0.50749942  0.31514275     1.10700
C1846       C  0.58292971  0.92826231  0.32861000     0.97300
C1847       C  0.58294448  0.58459258  0.33061994     0.97400
N1848       N  0.54269513  0.54310998  0.17871375    -0.07900
N1849       N  0.54837489  0.56637142  0.15376363    -0.63300
N1850       N  0.56830839  0.96446063  0.20547021    -0.07300
N1851       N  0.59372423  0.94134165  0.19957557    -0.60000
N1852       N  0.54379611  0.96321639  0.17935480    -0.08600
N1853       N  0.55272842  0.93949337  0.15472693    -0.62900
N1854       N  0.56850998  0.54424666  0.20354576    -0.07600
N1855       N  0.59270512  0.56796900  0.19536312    -0.60100
Mn1856     Mn  0.50024665  0.50301361  0.17767446     1.20200
Mn1857     Mn  0.56975558  0.50564714  0.24758135     1.10100
Cl1858     Cl  0.50135419  0.50578004  0.24648172    -0.88000
C1859       C  0.57951792  0.58169470  0.16436038     0.94300
C1860       C  0.58383038  0.92588382  0.16802233     0.94100
C1861       C  0.84760176  0.85268942  0.15143246     0.84400
C1862       C  0.87359059  0.87659953  0.17262615    -0.55800
C1863       C  0.89354385  0.89770759  0.15157126     0.07300
C1864       C  0.88535138  0.89273701  0.11073181     0.18300
C1865       C  0.82484730  0.87736921  0.12856788    -0.56500
C1866       C  0.84430518  0.89838820  0.10714046     0.07400
C1867       C  0.87066046  0.83265932  0.12505800    -0.56100
C1868       C  0.89061116  0.85320380  0.10375113     0.08000
H1869       H  0.87533404  0.87748040  0.20182345     0.12500
H1870       H  0.90138753  0.90989220  0.09353670    -0.01700
H1871       H  0.79581945  0.87852810  0.12966472     0.12800
H1872       H  0.87194649  0.80427731  0.12417747     0.12600
C1873       C  0.59852065  0.65584247  0.09980754     0.84400
C1874       C  0.62390858  0.67461484  0.12612508    -0.55800
C1875       C  0.64436133  0.65263108  0.14641524     0.07300
C1876       C  0.63758998  0.61357050  0.13881392     0.18300
C1877       C  0.62237890  0.63168926  0.07770706    -0.56500
C1878       C  0.64294390  0.60955787  0.09791637     0.07400
C1879       C  0.57653578  0.63128584  0.12259649    -0.56100
C1880       C  0.59672858  0.60909349  0.14320119     0.08000
H1881       H  0.62596054  0.70290009  0.12835238     0.12500
H1882       H  0.65429529  0.59563660  0.15539620    -0.01700
H1883       H  0.62262355  0.63169904  0.04850322     0.12800
H1884       H  0.54743235  0.63109911  0.12199227     0.12600
C1885       C  0.89764972  0.65638614  0.09879650     0.84400
C1886       C  0.92101778  0.63132787  0.12072278    -0.55800
C1887       C  0.90214968  0.60945394  0.14173227     0.07300
C1888       C  0.86107567  0.61465270  0.13870136     0.18300
C1889       C  0.87167771  0.63274918  0.07726125    -0.56500
C1890       C  0.85248075  0.61070063  0.09790967     0.07400
C1891       C  0.87474345  0.67550709  0.12605698    -0.56100
C1892       C  0.85568470  0.65386140  0.14699318     0.08000
H1893       H  0.95004655  0.63070741  0.11941312     0.12500
H1894       H  0.84551270  0.59688268  0.15569081    -0.01700
H1895       H  0.86959064  0.63255793  0.04807577     0.12800
H1896       H  0.87322271  0.70381446  0.12836681     0.12600
C1897       C  0.65134296  0.85285918  0.14987241     0.84400
C1898       C  0.67280349  0.87718543  0.12634044    -0.55800
C1899       C  0.65206438  0.89853003  0.10514229     0.07300
C1900       C  0.61127495  0.89345280  0.10968722     0.18300
C1901       C  0.62719615  0.87724788  0.17138760    -0.56500
C1902       C  0.60602985  0.89858321  0.15072388     0.07400
C1903       C  0.62627384  0.83320406  0.12397486    -0.56100
C1904       C  0.60521399  0.85397906  0.10286680     0.08000
H1905       H  0.70189044  0.87798319  0.12695912     0.12500
H1906       H  0.59418180  0.91076154  0.09278711    -0.01700
H1907       H  0.62728866  0.87800092  0.20059820     0.12800
H1908       H  0.62470918  0.80482982  0.12310529     0.12600
C1909       C  0.60105908  0.65783708  0.39904376     0.84400
C1910       C  0.58003842  0.63450788  0.37252986    -0.55800
C1911       C  0.60059627  0.61227796  0.35282579     0.07300
C1912       C  0.64128612  0.61583758  0.36147092     0.18300
C1913       C  0.62326494  0.63240302  0.42205903    -0.56500
C1914       C  0.64443878  0.61021928  0.40271146     0.07400
C1915       C  0.62806911  0.67687443  0.37672511    -0.56100
C1916       C  0.64907031  0.65524366  0.35691500     0.08000
H1917       H  0.55094924  0.63466821  0.37053070     0.12500
H1918       H  0.65827442  0.59803226  0.34533179    -0.01700
H1919       H  0.62181119  0.63152721  0.45115055     0.12800
H1920       H  0.62990503  0.70518844  0.37585910     0.12600
C1921       C  0.89626680  0.90799415  0.34798651     0.84400
C1922       C  0.91733113  0.88347327  0.37262437    -0.55800
C1923       C  0.89624031  0.86274191  0.39265394     0.07300
C1924       C  0.85573707  0.86848466  0.38656136     0.18300
C1925       C  0.87150407  0.88382449  0.32553848    -0.56500
C1926       C  0.85035505  0.86292227  0.34557826     0.07400
C1927       C  0.87158888  0.92853995  0.37278494    -0.56100
C1928       C  0.85047102  0.90808812  0.39314611     0.08000
H1929       H  0.94640460  0.88233501  0.37402955     0.12500
H1930       H  0.83879810  0.85157329  0.40314631    -0.01700
H1931       H  0.87199862  0.88209878  0.29637854     0.12800
H1932       H  0.87112637  0.95691070  0.37442137     0.12600
N1933       N  0.81799177  0.70768700  0.71131139    -0.08200
N1934       N  0.84328909  0.68485206  0.70357717    -0.60300
N1935       N  0.79174260  0.78690508  0.68468944    -0.07900
N1936       N  0.79692636  0.81141407  0.66087212    -0.62400
N1937       N  0.81692638  0.78810834  0.70996434    -0.07500
N1938       N  0.83975442  0.81347586  0.70393612    -0.60300
N1939       N  0.79241661  0.70656689  0.68640274    -0.07200
N1940       N  0.79970055  0.68291106  0.66153599    -0.62800
C1941       C  0.83110684  0.66890323  0.67290664     0.94000
C1942       C  0.82647993  0.82834703  0.67367503     0.93800
N1943       N  0.68354281  0.78682172  0.70811687    -0.08400
N1944       N  0.66048136  0.81231469  0.70181932    -0.60900
N1945       N  0.70906334  0.70571978  0.68520571    -0.06500
N1946       N  0.70100995  0.68189804  0.66035009    -0.62100
N1947       N  0.68471932  0.70623460  0.71000460    -0.08400
N1948       N  0.65971643  0.68281651  0.70256620    -0.61200
N1949       N  0.70822620  0.78626304  0.68358903    -0.06100
N1950       N  0.70250192  0.81128635  0.66011804    -0.62200
Mn1951     Mn  0.75034439  0.74627668  0.68385160     1.18400
C1952       C  0.67312496  0.82795048  0.67228278     0.96100
C1953       C  0.67056282  0.66721747  0.67193331     0.96700
N1954       N  0.81800350  0.79135166  0.79385798    -0.08400
N1955       N  0.84122911  0.81694540  0.79869130    -0.64700
N1956       N  0.79430670  0.71224198  0.82011102    -0.07200
N1957       N  0.79973994  0.68771774  0.84391963    -0.65400
N1958       N  0.81943932  0.71149365  0.79602109    -0.07900
N1959       N  0.84304339  0.68669187  0.80329170    -0.65000
N1960       N  0.79399423  0.79221475  0.81913173    -0.06800
N1961       N  0.80090668  0.81821415  0.84218772    -0.65700
Mn1962     Mn  0.81927437  0.74956922  0.75279267     1.10700
C1963       C  0.83026181  0.83356556  0.82874034     0.97300
C1964       C  0.83004009  0.67205609  0.83306199     0.97400
N1965       N  0.68593632  0.70860756  0.79359020    -0.07900
N1966       N  0.66201608  0.68454129  0.80076898    -0.63300
N1967       N  0.70887151  0.79050265  0.81737209    -0.07300
N1968       N  0.70118850  0.81517471  0.84105734    -0.60000
N1969       N  0.68369771  0.78862291  0.79208719    -0.08600
N1970       N  0.65836245  0.81183645  0.79799960    -0.62900
N1971       N  0.71080128  0.71020010  0.81918435    -0.07600
N1972       N  0.70411252  0.68725711  0.84427046    -0.60100
Mn1973     Mn  0.68340646  0.74753612  0.75089225     1.20200
Mn1974     Mn  0.75200980  0.75150029  0.82017041     1.10100
Cl1975     Cl  0.75127891  0.74879511  0.75197414    -0.88000
C1976       C  0.67406364  0.67072829  0.83206264     0.94300
C1977       C  0.66999426  0.82870601  0.82818709     0.94100
N1978       N  0.95681819  0.71851035  0.56372931    -0.08200
N1979       N  0.93393505  0.71036894  0.58868734    -0.60300
N1980       N  0.53801613  0.69505608  0.53847783    -0.07900
N1981       N  0.56065516  0.66966843  0.54588165    -0.62400
N1982       N  0.53860562  0.71895925  0.56412232    -0.07500
N1983       N  0.56179103  0.71020164  0.58981797    -0.60300
N1984       N  0.95681869  0.69428365  0.53836729    -0.07200
N1985       N  0.93405440  0.66921375  0.54535584    -0.62800
C1986       C  0.91929752  0.67997299  0.57634020     0.94000
C1987       C  0.57593390  0.67979435  0.57752221     0.93800
N1988       N  0.53557441  0.71785810  0.92954750    -0.08400
N1989       N  0.56014509  0.70997944  0.90576725    -0.62100
N1990       N  0.95532339  0.69240370  0.95522563    -0.06500
N1991       N  0.93378969  0.66577366  0.94935206    -0.62100
N1992       N  0.95352747  0.71444231  0.92851975    -0.08400
N1993       N  0.93079044  0.70245275  0.90317953    -0.61200
N1994       N  0.53656061  0.69500264  0.95554063    -0.06100
N1995       N  0.56166991  0.67146789  0.95034787    -0.62200
Mn1996     Mn  0.99664427  0.69401592  0.99683070     1.18400
C1997       C  0.57676661  0.68142747  0.91967870     0.96100
C1998       C  0.91855027  0.67215543  0.91705294     0.96700
N1999       N  0.53771808  0.80132546  0.56384898    -0.08400
N2000       N  0.56225632  0.80702790  0.58907106    -0.64700
N2001       N  0.95565254  0.82637528  0.54134471    -0.07200
N2002       N  0.93171151  0.85019749  0.55086241    -0.65400
N2003       N  0.95657981  0.80080593  0.56456517    -0.07900
N2004       N  0.93326132  0.80625594  0.58985362    -0.65000
N2005       N  0.53717911  0.82683089  0.54046976    -0.06800
N2006       N  0.56128101  0.85091669  0.54997959    -0.65700
Mn2007     Mn  0.99742314  0.76006670  0.56471346     1.10700
C2008       C  0.57680549  0.83777956  0.58024626     0.97300
C2009       C  0.91786571  0.83691593  0.58107484     0.97400
N2010       N  0.95099706  0.79926123  0.93074555    -0.07900
N2011       N  0.92703496  0.80730221  0.90549393    -0.63300
N2012       N  0.53343881  0.82647135  0.95325620    -0.07300
N2013       N  0.55676912  0.85072144  0.94413644    -0.60000
N2014       N  0.53245336  0.80098668  0.92898265    -0.08600
N2015       N  0.55524653  0.80706161  0.90346820    -0.62900
N2016       N  0.95199202  0.82391511  0.95595420    -0.07600
N2017       N  0.92863663  0.84870724  0.94834787    -0.60100
Mn2018     Mn  0.99289996  0.75825148  0.92823791     1.20200
Mn2019     Mn  0.99472108  0.82710088  0.99759970     1.10100
Cl2020     Cl  0.99543099  0.75999681  0.99677719    -0.88000
C2021       C  0.91262417  0.83772658  0.91731488     0.94300
C2022       C  0.57019807  0.83800267  0.91302896     0.94100
C2023       C  0.84968543  0.59993762  0.89902584     0.84400
C2024       C  0.87357678  0.62542755  0.92059169    -0.55800
C2025       C  0.89344680  0.64691569  0.89986264     0.07300
C2026       C  0.88795265  0.64024688  0.85905672     0.18300
C2027       C  0.82734611  0.62298294  0.87408402    -0.56500
C2028       C  0.84720383  0.64411163  0.85329925     0.07400
C2029       C  0.87503204  0.57986778  0.87459063    -0.56100
C2030       C  0.89509704  0.60070421  0.85357239     0.08000
H2031       H  0.87450159  0.62654673  0.94980343     0.12500
H2032       H  0.90421132  0.65742744  0.84208849    -0.01700
H2033       H  0.79825651  0.62378631  0.87406226     0.12800
H2034       H  0.87682375  0.55152708  0.87378277     0.12600
N2035       N  0.67830183  0.54284552  0.95839142    -0.08200
N2036       N  0.65424708  0.56736660  0.95182196    -0.60300
N2037       N  0.70233253  0.96251799  0.93429188    -0.07900
N2038       N  0.69565705  0.93884619  0.90911281    -0.62400
N2039       N  0.67692586  0.96280306  0.95814671    -0.07500
N2040       N  0.65188902  0.93950837  0.94912040    -0.60300
N2041       N  0.70251229  0.54233410  0.93327695    -0.07200
N2042       N  0.69489665  0.56619255  0.90871599    -0.62800
C2043       C  0.66480207  0.58179827  0.92085841     0.94000
C2044       C  0.66432969  0.92465711  0.91858528     0.93800
N2045       N  0.81213580  0.96014827  0.96017236    -0.08400
N2046       N  0.83773555  0.93808560  0.95096425    -0.60900
N2047       N  0.78812497  0.54037525  0.93505592    -0.06500
N2048       N  0.79582741  0.56287585  0.90995399    -0.62100
N2049       N  0.81373153  0.53988220  0.95997818    -0.08400
N2050       N  0.83935474  0.56205885  0.95234941    -0.61200
N2051       N  0.78673155  0.96060201  0.93496934    -0.06100
N2052       N  0.79459959  0.93877158  0.90846585    -0.62200
Mn2053     Mn  0.74491580  0.50156393  0.93375585     1.18400
C2054       C  0.82599674  0.92414855  0.91910407     0.96100
C2055       C  0.82747028  0.57669170  0.92145551     0.96700
N2056       N  0.67891466  0.96419220  0.54496314    -0.08400
N2057       N  0.65500399  0.94015004  0.55310924    -0.64700
N2058       N  0.70422222  0.54487723  0.56913515    -0.07200
N2059       N  0.69569213  0.56866352  0.59375139    -0.65400
N2060       N  0.67965683  0.54394187  0.54310150    -0.07900
N2061       N  0.65457216  0.56733165  0.54893139    -0.65000
N2062       N  0.70495225  0.96516832  0.56954339    -0.06800
N2063       N  0.69975868  0.94159609  0.59424718    -0.65700
Mn2064     Mn  0.67758297  0.50323943  0.50118631     1.10700
C2065       C  0.66868874  0.92613870  0.58381296     0.97300
C2066       C  0.66480953  0.58257023  0.58041267     0.97400
N2067       N  0.81478651  0.54268910  0.54447284    -0.07900
N2068       N  0.83988645  0.56640739  0.55010943    -0.63300
N2069       N  0.78923121  0.96446936  0.57084785    -0.07300
N2070       N  0.79572886  0.94133933  0.59602754    -0.60000
N2071       N  0.81412886  0.96299022  0.54647215    -0.08600
N2072       N  0.83853281  0.93919150  0.55502733    -0.62900
N2073       N  0.79095917  0.54438122  0.56994381    -0.07600
N2074       N  0.80001813  0.56900479  0.59396464    -0.60100
Mn2075     Mn  0.81441241  0.50120741  0.50282407     1.20200
Mn2076     Mn  0.74732094  0.50500478  0.57075481     1.10100
Cl2077     Cl  0.74604571  0.50273561  0.50215076    -0.88000
C2078       C  0.83044951  0.58267825  0.58088684     0.94300
C2079       C  0.82641651  0.92576452  0.58585856     0.94100
C2080       C  0.64688679  0.85273427  0.84943308     0.84400
C2081       C  0.62494599  0.87846550  0.82692062    -0.55800
C2082       C  0.60342687  0.89997461  0.84659520     0.07300
C2083       C  0.60625107  0.89356944  0.88779647     0.18300
C2084       C  0.66771174  0.87538993  0.87654928    -0.56500
C2085       C  0.64689350  0.89701304  0.89660571     0.07400
C2086       C  0.61970465  0.83312922  0.87120590    -0.56100
C2087       C  0.59843328  0.85404137  0.89163300     0.08000
H2088       H  0.62673043  0.87989236  0.79786887     0.12500
H2089       H  0.58909755  0.91113198  0.90403010    -0.01700
H2090       H  0.69680375  0.87553980  0.87856908     0.12800
H2091       H  0.61759696  0.80479516  0.87055360     0.12600
N2092       N  0.95993988  0.54824516  0.81343347    -0.08200
N2093       N  0.95160174  0.57039064  0.83952836    -0.60300
N2094       N  0.93373357  0.96844332  0.78845380    -0.07900
N2095       N  0.90826340  0.94586076  0.79527340    -0.62400
N2096       N  0.95882307  0.96814803  0.81389964    -0.07500
N2097       N  0.95071924  0.94537437  0.83872011    -0.60300
N2098       N  0.93489721  0.54837490  0.78787987    -0.07200
N2099       N  0.90915492  0.57055123  0.79634858    -0.62800
C2100       C  0.92033024  0.58490030  0.82818237     0.94000
C2101       C  0.91950842  0.93111429  0.82628689     0.93800
N2102       N  0.95642942  0.96345949  0.67873124    -0.08400
N2103       N  0.94685328  0.93883854  0.65483218    -0.60900
N2104       N  0.93326436  0.54496817  0.70197595    -0.06500
N2105       N  0.90869905  0.56863709  0.69360011    -0.62100
N2106       N  0.95805884  0.54359993  0.67748653    -0.08400
N2107       N  0.95128548  0.56676716  0.65236428    -0.61200
N2108       N  0.93280762  0.96537056  0.70438770    -0.06100
N2109       N  0.90744404  0.94188936  0.69904734    -0.62200
Mn2110     Mn  0.93312013  0.50700733  0.74564803     1.18400
C2111       C  0.91636137  0.92545426  0.66823369     0.96100
C2112       C  0.92053778  0.58216091  0.66273256     0.96700
N2113       N  0.54475303  0.96710304  0.81581850    -0.08400
N2114       N  0.55266846  0.94359961  0.84064293    -0.64700
N2115       N  0.57016514  0.54651674  0.79074724    -0.07200
N2116       N  0.59530852  0.56969722  0.80000856    -0.65400
N2117       N  0.54469134  0.54686490  0.81458247    -0.07900
N2118       N  0.55148775  0.57046969  0.83988824    -0.65000
N2119       N  0.56893033  0.96656053  0.79065301    -0.06800
N2120       N  0.59326958  0.94243478  0.79747460    -0.65700
Mn2121     Mn  0.50206316  0.50749941  0.81514275     1.10700
C2122       C  0.58292970  0.92826245  0.82861007     0.97300
C2123       C  0.58294455  0.58459249  0.83061999     0.97400
N2124       N  0.54269516  0.54310989  0.67871366    -0.07900
N2125       N  0.54837495  0.56637134  0.65376357    -0.63300
N2126       N  0.56830852  0.96446065  0.70547017    -0.07300
N2127       N  0.59372433  0.94134171  0.69957550    -0.60000
N2128       N  0.54379622  0.96321640  0.67935471    -0.08600
N2129       N  0.55272857  0.93949348  0.65472675    -0.62900
N2130       N  0.56850982  0.54424678  0.70354583    -0.07600
N2131       N  0.59270506  0.56796902  0.69536308    -0.60100
Mn2132     Mn  0.50024666  0.50301360  0.67767440     1.20200
Mn2133     Mn  0.56975549  0.50564716  0.74758130     1.10100
Cl2134     Cl  0.50135419  0.50577998  0.74648169    -0.88000
C2135       C  0.57951787  0.58169478  0.66436039     0.94300
C2136       C  0.58383049  0.92588389  0.66802220     0.94100
C2137       C  0.84760191  0.85268932  0.65143233     0.84400
C2138       C  0.87359064  0.87659942  0.67262608    -0.55800
C2139       C  0.89354399  0.89770747  0.65157117     0.07300
C2140       C  0.88535142  0.89273706  0.61073176     0.18300
C2141       C  0.82484747  0.87736915  0.62856778    -0.56500
C2142       C  0.84430527  0.89838813  0.60714024     0.07400
C2143       C  0.87066047  0.83265914  0.62505791    -0.56100
C2144       C  0.89061126  0.85320377  0.60375118     0.08000
H2145       H  0.87533370  0.87748017  0.70182308     0.12500
H2146       H  0.90138761  0.90989239  0.59353696    -0.01700
H2147       H  0.79581994  0.87852786  0.62966474     0.12800
H2148       H  0.87194661  0.80427716  0.62417741     0.12600
C2149       C  0.59852049  0.65584252  0.59980756     0.84400
C2150       C  0.62390851  0.67461492  0.62612510    -0.55800
C2151       C  0.64436126  0.65263121  0.64641523     0.07300
C2152       C  0.63758989  0.61357063  0.63881395     0.18300
C2153       C  0.62237880  0.63168935  0.57770715    -0.56500
C2154       C  0.64294381  0.60955793  0.59791636     0.07400
C2155       C  0.57653563  0.63128586  0.62259643    -0.56100
C2156       C  0.59672840  0.60909358  0.64320107     0.08000
H2157       H  0.62596028  0.70290019  0.62835249     0.12500
H2158       H  0.65429493  0.59563674  0.65539626    -0.01700
H2159       H  0.62262350  0.63169930  0.54850324     0.12800
H2160       H  0.54743184  0.63109912  0.62199231     0.12600
C2161       C  0.89764976  0.65638611  0.59879643     0.84400
C2162       C  0.92101779  0.63132794  0.62072279    -0.55800
C2163       C  0.90214973  0.60945400  0.64173221     0.07300
C2164       C  0.86107572  0.61465276  0.63870143     0.18300
C2165       C  0.87167782  0.63274914  0.57726115    -0.56500
C2166       C  0.85248079  0.61070060  0.59790962     0.07400
C2167       C  0.87474347  0.67550698  0.62605700    -0.56100
C2168       C  0.85568468  0.65386141  0.64699324     0.08000
H2169       H  0.95004661  0.63070738  0.61941342     0.12500
H2170       H  0.84551308  0.59688279  0.65569103    -0.01700
H2171       H  0.86959072  0.63255813  0.54807565     0.12800
H2172       H  0.87322257  0.70381439  0.62836661     0.12600
C2173       C  0.65134306  0.85285929  0.64987230     0.84400
C2174       C  0.67280371  0.87718535  0.62634042    -0.55800
C2175       C  0.65206468  0.89852993  0.60514215     0.07300
C2176       C  0.61127512  0.89345283  0.60968706     0.18300
C2177       C  0.62719619  0.87724799  0.67138744    -0.56500
C2178       C  0.60602992  0.89858333  0.65072365     0.07400
C2179       C  0.62627389  0.83320420  0.62397487    -0.56100
C2180       C  0.60521407  0.85397922  0.60286669     0.08000
H2181       H  0.70189093  0.87798289  0.62695939     0.12500
H2182       H  0.59418196  0.91076152  0.59278682    -0.01700
H2183       H  0.62728863  0.87800113  0.70059771     0.12800
H2184       H  0.62470924  0.80483030  0.62310556     0.12600
C2185       C  0.60105899  0.65783699  0.89904374     0.84400
C2186       C  0.58003841  0.63450782  0.87252982    -0.55800
C2187       C  0.60059625  0.61227791  0.85282580     0.07300
C2188       C  0.64128608  0.61583742  0.86147102     0.18300
C2189       C  0.62326492  0.63240293  0.92205890    -0.56500
C2190       C  0.64443889  0.61021927  0.90271146     0.07400
C2191       C  0.62806908  0.67687427  0.87672517    -0.56100
C2192       C  0.64907034  0.65524345  0.85691506     0.08000
H2193       H  0.55094918  0.63466813  0.87053044     0.12500
H2194       H  0.65827435  0.59803209  0.84533195    -0.01700
H2195       H  0.62181108  0.63152686  0.95115040     0.12800
H2196       H  0.62990449  0.70518799  0.87585877     0.12600
C2197       C  0.89626697  0.90799416  0.84798654     0.84400
C2198       C  0.91733117  0.88347319  0.87262439    -0.55800
C2199       C  0.89624028  0.86274192  0.89265388     0.07300
C2200       C  0.85573702  0.86848469  0.88656118     0.18300
C2201       C  0.87150424  0.88382457  0.82553854    -0.56500
C2202       C  0.85035512  0.86292234  0.84557820     0.07400
C2203       C  0.87158893  0.92854006  0.87278480    -0.56100
C2204       C  0.85047103  0.90808819  0.89314605     0.08000
H2205       H  0.94640475  0.88233504  0.87403007     0.12500
H2206       H  0.83879790  0.85157328  0.90314587    -0.01700
H2207       H  0.87199900  0.88209880  0.79637863     0.12800
H2208       H  0.87112691  0.95691079  0.87442139     0.12600
loop_ 
_geom_bond_atom_site_label_1 
_geom_bond_atom_site_label_2 
_geom_bond_distance 
_geom_bond_site_symmetry_2 
_ccdc_geom_bond_type 
N1            N2   1.320       .  A
N1            N7   1.314       .  A
N1          Mn30   2.208       .  S
N2            C9   1.354       .  A
N3            N5   1.313       .  A
N3            N4   1.319       .  A
N3          Mn19   2.194       .  S
N4           C10   1.353       .  A
N5            N6   1.319       .  A
N5          Mn30   2.189       .  S
N6           C10   1.352       .  A
N7            N8   1.318       .  A
N7          Mn19   2.186       .  S
N8            C9   1.350       .  A
C9          C236   1.460       .  S
C10         C205   1.495       .  S
N11          N17   1.314       .  A
N11          N12   1.320       .  A
N11         Mn41   2.207       .  S
N12          C20   1.355       .  A
N13          N14   1.318       .  A
N13          N15   1.312       .  A
N13         Mn19   2.192       .  S
N14          C21   1.353       .  A
N15          N16   1.317       .  A
N15         Mn41   2.178       .  S
N16          C21   1.350       .  A
N17          N18   1.320       .  A
N17         Mn19   2.194       .  S
N18          C20   1.353       .  A
Mn19        Cl43   2.535       .  S
C20         C241   1.502       .  S
C21         C219   1.452       .  S
N22          N23   1.317       .  A
N22          N28   1.316       .  A
N22         Mn30   2.196       .  S
N23          C31   1.350       .  A
N24          N26   1.314       .  A
N24          N25   1.313       .  A
N24         Mn42   2.178       .  S
N25          C32   1.348       .  A
N26          N27   1.321       .  A
N26         Mn30   2.187       .  S
N27          C32   1.351       .  A
N28          N29   1.325       .  A
N28         Mn42   2.214       .  S
N29          C31   1.355       .  A
Mn30        Cl43   2.539       .  S
C31         C270   1.475       .  S
C32          C96   1.456       .  S
N33          N34   1.319       .  A
N33          N39   1.314       .  A
N33         Mn41   2.196       .  S
N34          C44   1.353       .  A
N35          N36   1.318       .  A
N35          N37   1.314       .  A
N35         Mn42   2.196       .  S
N36          C45   1.354       .  A
N37          N38   1.317       .  A
N37         Mn41   2.178       .  S
N38          C45   1.349       .  A
N39          N40   1.320       .  A
N39         Mn42   2.208       .  S
N40          C44   1.354       .  A
Mn41        Cl43   2.535       .  S
Mn42        Cl43   2.538       .  S
C44         C260   1.464       .  S
C45         C148   1.492       .  S
N46          N47   1.319       .  A
N46          N52   1.313       .  A
N46         Mn75   2.199       .  S
N47          C54   1.355       .  A
N48          N50   1.311       .  A
N48          N49   1.315       .  A
N48       Mn1444   2.161   1_454  S
N49          C55   1.347       .  A
N50          N51   1.321       .  A
N50       Mn1179   2.198   1_455  S
N51          C55   1.355       .  A
N52          N53   1.316       .  A
N52        Mn340   2.172   1_554  S
N53          C54   1.349       .  A
C54         C229   1.492       .  S
C55         C217   1.492       .  S
N56          N62   1.314       .  A
N56          N57   1.322       .  A
N56       Mn1190   2.221   1_455  S
N57          C65   1.359       .  A
N58          N59   1.311       .  A
N58          N60   1.314       .  A
N58         Mn64   2.158       .  S
N59          C66   1.342       .  A
N60          N61   1.330       .  A
N60         Mn86   2.233       .  S
N61          C66   1.361       .  A
N62          N63   1.315       .  A
N62       Mn1168   2.167   1_455  S
N63          C65   1.347       .  A
Mn64       N1428   2.160       .  S
Mn64        N328   2.172       .  S
Mn64       N1166   2.167       .  S
Mn64        Cl88   2.526       .  S
C65         C253   1.496       .  S
C66          C93   1.475       .  S
N67          N68   1.311       .  A
N67          N73   1.318       .  A
N67       Mn1179   2.183   1_455  S
N68          C76   1.346       .  A
N69          N71   1.316       .  A
N69          N70   1.327       .  A
N69        Mn363   2.214   1_554  S
N70          C77   1.356       .  A
N71          N72   1.313       .  A
N71         Mn75   2.180       .  S
N72          C77   1.347       .  A
N73          N74   1.327       .  A
N73       Mn1467   2.218   1_454  S
N74          C76   1.357       .  A
Mn75       N1154   2.197       .  S
Mn75       N1171   2.183       .  S
Mn75       Cl364   2.527   1_554  S
C76         C248   1.470       .  S
C77         C212   1.470       .  S
N78          N79   1.320       .  A
N78          N84   1.320       .  A
N78         Mn86   2.217       .  S
N79          C89   1.354       .  A
N80          N81   1.328       .  A
N80          N82   1.319       .  A
N80       Mn1191   2.223   1_455  S
N81          C90   1.356       .  A
N82          N83   1.315       .  A
N82       Mn1190   2.203   1_455  S
N83          C90   1.349       .  A
N84          N85   1.317       .  A
N84         Mn87   2.198       .  S
N85          C89   1.348       .  A
Mn86       N1160   2.221       .  S
Mn86       N1186   2.203       .  S
Mn86        Cl88   2.549       .  S
Mn87        N345   2.214       .  S
Mn87       N1453   2.218       .  S
Mn87       N1184   2.223       .  S
Mn87        Cl88   2.568       .  S
Cl88       Mn351   2.527       .  S
C89         C267   1.459       .  S
C90         C155   1.478       .  S
C91         C123   1.496       .  S
C91          C92   1.528       .  S
C91          C97   1.527       .  S
C91          C95   1.523       .  S
C92          H99   1.087       .  S
C92          C93   1.369       .  D
C93          C94   1.544       .  S
C94          C98   1.548       .  S
C94          C96   1.539       .  S
C94         H100   1.111       .  S
C95         H101   1.087       .  S
C95          C96   1.361       .  D
C97         H102   1.087       .  S
C97          C98   1.364       .  D
C98         C168   1.474       .  S
N103        N104   1.320       .  A
N103        N109   1.317       .  A
N103       Mn408   2.216       .  S
N104        C111   1.353       .  A
N105        N107   1.316       .  A
N105        N106   1.313       .  A
N105       Mn673   2.185       .  S
N106        C112   1.348       .  A
N107        N108   1.326       .  A
N107       Mn960   2.209       .  S
N108        C112   1.355       .  A
N109        N110   1.327       .  A
N109       Mn121   2.221       .  S
N110        C111   1.356       .  A
C111        C258   1.487       .  S
C112        C153   1.470       .  S
N113        N119   1.317       .  A
N113        N114   1.323       .  A
N113       Mn971   2.216       .  S
N114        C122   1.355       .  A
N115        N116   1.318       .  A
N115        N117   1.315       .  A
N115       Mn121   2.195       .  S
N116        C123   1.352       .  A
N117        N118   1.319       .  A
N117       Mn419   2.192       .  S
N118        C123   1.351       .  A
N119        N120   1.321       .  A
N119       Mn673   2.211       .  S
N120        C122   1.351       .  A
Mn121       N657   2.185   1_545  S
Mn121       N671   2.211   1_545  S
Mn121      Cl421   2.544       .  S
C122        C272   1.473       .  S
N124        N125   1.327       .  A
N124        N130   1.318       .  A
N124       Mn684   2.228       .  S
N125        C133   1.357       .  A
N126        N128   1.317       .  A
N126        N127   1.326       .  A
N126       Mn144   2.217       .  S
N127        C134   1.356       .  A
N128        N129   1.315       .  A
N128       Mn132   2.187       .  S
N129        C134   1.347       .  A
N130        N131   1.316       .  A
N130       Mn696   2.199       .  S
N131        C133   1.349       .  A
Mn132       N379   2.216   1_554  S
Mn132       N935   2.209   1_544  S
Mn132       N676   2.228   1_545  S
Mn132      Cl145   2.557       .  S
C133        C243   1.479       .  S
C134        C222   1.471       .  S
N135        N136   1.317       .  A
N135        N141   1.317       .  A
N135       Mn143   2.201       .  S
N136        C146   1.350       .  A
N137        N138   1.317       .  A
N137        N139   1.316       .  A
N137       Mn696   2.203       .  S
N138        C147   1.351       .  A
N139        N140   1.324       .  A
N139       Mn695   2.204       .  S
N140        C147   1.353       .  A
N141        N142   1.327       .  A
N141       Mn144   2.223       .  S
N142        C146   1.357       .  A
Mn143       N941   2.216   1_544  S
Mn143       N393   2.192   1_554  S
Mn143       N691   2.204   1_545  S
Mn143      Cl145   2.554       .  S
Mn144       N682   2.199   1_545  S
Mn144       N689   2.203   1_545  S
Mn144      Cl145   2.552       .  S
Cl145      Mn397   2.544   1_554  S
C146        C234   1.478       .  S
C147        C210   1.473       .  S
C148        C149   1.527       .  S
C148        C154   1.521       .  S
C148        C152   1.520       .  S
C149        H156   1.087       .  S
C149        C150   1.367       .  D
C150        C190   1.484       .  S
C150        C151   1.557       .  S
C151        C155   1.551       .  S
C151        C153   1.550       .  S
C151        H157   1.110       .  S
C152        H158   1.087       .  S
C152        C153   1.362       .  D
C154        H159   1.087       .  S
C154        C155   1.364       .  D
N160        N161   1.322       .  A
N160        N166   1.317       .  A
N160      Mn1293   2.214       .  S
N161        C168   1.353       .  A
N162        N164   1.315       .  A
N162        N163   1.318       .  A
N162       Mn730   2.188       .  S
N163        C169   1.350       .  A
N164        N165   1.321       .  A
N164      Mn1845   2.208       .  S
N165        C169   1.355       .  A
N166        N167   1.322       .  A
N166       Mn178   2.213       .  S
N167        C168   1.354       .  A
C169        C265   1.500       .  S
N170        N176   1.318       .  A
N170        N171   1.329       .  A
N170      Mn1856   2.233       .  S
N171        C179   1.359       .  A
N172        N173   1.323       .  A
N172        N174   1.316       .  A
N172       Mn178   2.197       .  S
N173        C180   1.352       .  A
N174        N175   1.318       .  A
N174      Mn1304   2.209       .  S
N175        C180   1.352       .  A
N176        N177   1.316       .  A
N176       Mn730   2.195       .  S
N177        C179   1.348       .  A
Mn178       N714   2.188   1_545  S
Mn178       N728   2.195   1_545  S
Mn178     Cl1306   2.549       .  S
C179        C207   1.481       .  S
C180        C231   1.473       .  S
N181        N182   1.327       .  A
N181        N187   1.317       .  A
N181       Mn741   2.220       .  S
N182        C190   1.356       .  A
N183        N185   1.317       .  A
N183        N184   1.328       .  A
N183       Mn201   2.225       .  S
N184        C191   1.357       .  A
N185        N186   1.315       .  A
N185       Mn189   2.195       .  S
N186        C191   1.349       .  A
N187        N188   1.318       .  A
N187       Mn753   2.211       .  S
N188        C190   1.353       .  A
Mn189      N1264   2.215   1_455  S
Mn189      N1820   2.208   1_445  S
Mn189       N733   2.220   1_545  S
Mn189      Cl202   2.554       .  S
C191        C255   1.479       .  S
N192        N193   1.318       .  A
N192        N198   1.319       .  A
N192       Mn200   2.207       .  S
N193        C203   1.350       .  A
N194        N195   1.317       .  A
N194        N196   1.318       .  A
N194       Mn753   2.206       .  S
N195        C204   1.350       .  A
N196        N197   1.328       .  A
N196       Mn752   2.228       .  S
N197        C204   1.357       .  A
N198        N199   1.326       .  A
N198       Mn201   2.224       .  S
N199        C203   1.356       .  A
Mn200      N1826   2.234   1_445  S
Mn200      N1278   2.210   1_455  S
Mn200       N748   2.228   1_545  S
Mn200      Cl202   2.561       .  S
Mn201       N739   2.211   1_545  S
Mn201       N746   2.206   1_545  S
Mn201      Cl202   2.555       .  S
Cl202     Mn1282   2.548   1_455  S
C203        C224   1.479       .  S
C204        C246   1.483       .  S
C205        C206   1.530       .  S
C205        C211   1.520       .  S
C205        C209   1.525       .  S
C206        H213   1.087       .  S
C206        C207   1.369       .  D
C207        C208   1.551       .  S
C208        C212   1.544       .  S
C208        C210   1.551       .  S
C208        H214   1.111       .  S
C209        H215   1.087       .  S
C209        C210   1.365       .  D
C211        H216   1.087       .  S
C211        C212   1.361       .  D
C217        C218   1.519       .  S
C217        C223   1.530       .  S
C217        C221   1.529       .  S
C218        H225   1.087       .  S
C218        C219   1.360       .  D
C219        C220   1.537       .  S
C220        C224   1.549       .  S
C220        C222   1.545       .  S
C220        H226   1.111       .  S
C221        H227   1.087       .  S
C221        C222   1.364       .  D
C223        H228   1.087       .  S
C223        C224   1.366       .  D
C229        C230   1.527       .  S
C229        C235   1.522       .  S
C229        C233   1.530       .  S
C230        H237   1.087       .  S
C230        C231   1.364       .  D
C231        C232   1.548       .  S
C232        C236   1.541       .  S
C232        C234   1.549       .  S
C232        H238   1.111       .  S
C233        H239   1.087       .  S
C233        C234   1.366       .  D
C235        H240   1.087       .  S
C235        C236   1.360       .  D
C241        C242   1.530       .  S
C241        C247   1.518       .  S
C241        C245   1.529       .  S
C242        H249   1.087       .  S
C242        C243   1.370       .  D
C243        C244   1.550       .  S
C244        C248   1.544       .  S
C244        C246   1.554       .  S
C244        H250   1.111       .  S
C245        H251   1.087       .  S
C245        C246   1.368       .  D
C247        H252   1.088       .  S
C247        C248   1.362       .  D
C253        C254   1.524       .  S
C253        C259   1.518       .  S
C253        C257   1.535       .  S
C254        H261   1.087       .  S
C254        C255   1.363       .  D
C255        C256   1.551       .  S
C256        C260   1.549       .  S
C256        C258   1.554       .  S
C256        H262   1.110       .  S
C257        H263   1.086       .  S
C257        C258   1.368       .  D
C259        H264   1.087       .  S
C259        C260   1.361       .  D
C265        C266   1.526       .  S
C265        C271   1.529       .  S
C265        C269   1.532       .  S
C266        H273   1.087       .  S
C266        C267   1.362       .  D
C267        C268   1.540       .  S
C268        C272   1.545       .  S
C268        C270   1.544       .  S
C268        H274   1.111       .  S
C269        H275   1.087       .  S
C269        C270   1.368       .  D
C271        H276   1.087       .  S
C271        C272   1.364       .  D
N277        N278   1.320       .  A
N277        N283   1.314       .  A
N277       Mn306   2.208       .  S
N278        C285   1.355       .  A
N279        N281   1.313       .  A
N279        N280   1.319       .  A
N279       Mn295   2.194       .  S
N280        C286   1.353       .  A
N281        N282   1.319       .  A
N281       Mn306   2.189       .  S
N282        C286   1.352       .  A
N283        N284   1.318       .  A
N283       Mn295   2.186       .  S
N284        C285   1.350       .  A
C285        C512   1.460       .  S
C286        C481   1.495       .  S
N287        N293   1.314       .  A
N287        N288   1.320       .  A
N287       Mn317   2.207       .  S
N288        C296   1.355       .  A
N289        N290   1.318       .  A
N289        N291   1.312       .  A
N289       Mn295   2.192       .  S
N290        C297   1.353       .  A
N291        N292   1.317       .  A
N291       Mn317   2.178       .  S
N292        C297   1.350       .  A
N293        N294   1.320       .  A
N293       Mn295   2.194       .  S
N294        C296   1.353       .  A
Mn295      Cl319   2.535       .  S
C296        C517   1.502       .  S
C297        C495   1.452       .  S
N298        N299   1.317       .  A
N298        N304   1.316       .  A
N298       Mn306   2.196       .  S
N299        C307   1.350       .  A
N300        N302   1.314       .  A
N300        N301   1.313       .  A
N300       Mn318   2.178       .  S
N301        C308   1.348       .  A
N302        N303   1.321       .  A
N302       Mn306   2.187       .  S
N303        C308   1.351       .  A
N304        N305   1.325       .  A
N304       Mn318   2.214       .  S
N305        C307   1.355       .  A
Mn306      Cl319   2.539       .  S
C307        C546   1.475       .  S
C308        C372   1.456       .  S
N309        N310   1.319       .  A
N309        N315   1.314       .  A
N309       Mn317   2.196       .  S
N310        C320   1.353       .  A
N311        N312   1.318       .  A
N311        N313   1.314       .  A
N311       Mn318   2.196       .  S
N312        C321   1.354       .  A
N313        N314   1.317       .  A
N313       Mn317   2.178       .  S
N314        C321   1.349       .  A
N315        N316   1.320       .  A
N315       Mn318   2.208       .  S
N316        C320   1.354       .  A
Mn317      Cl319   2.535       .  S
Mn318      Cl319   2.538       .  S
C320        C536   1.464       .  S
C321        C424   1.492       .  S
N322        N323   1.319       .  A
N322        N328   1.313       .  A
N322       Mn351   2.199       .  S
N323        C330   1.355       .  A
N324        N326   1.311       .  A
N324        N325   1.315       .  A
N324      Mn1168   2.161   1_455  S
N325        C331   1.347       .  A
N326        N327   1.321       .  A
N326      Mn1455   2.198   1_455  S
N327        C331   1.355       .  A
N328        N329   1.316       .  A
N329        C330   1.349       .  A
C330        C505   1.492       .  S
C331        C493   1.492       .  S
N332        N338   1.314       .  A
N332        N333   1.322       .  A
N332      Mn1466   2.221   1_455  S
N333        C341   1.359       .  A
N334        N335   1.312       .  A
N334        N336   1.314       .  A
N334       Mn340   2.158       .  S
N335        C342   1.342       .  A
N336        N337   1.330       .  A
N336       Mn362   2.233       .  S
N337        C342   1.361       .  A
N338        N339   1.315       .  A
N338      Mn1444   2.167   1_455  S
N339        C341   1.347       .  A
Mn340      N1152   2.160   1_556  S
Mn340      N1442   2.167       .  S
Mn340      Cl364   2.526       .  S
C341        C529   1.496       .  S
C342        C369   1.475       .  S
N343        N344   1.311       .  A
N343        N349   1.318       .  A
N343      Mn1455   2.183   1_455  S
N344        C352   1.346       .  A
N345        N347   1.316       .  A
N345        N346   1.327       .  A
N346        C353   1.356       .  A
N347        N348   1.313       .  A
N347       Mn351   2.180       .  S
N348        C353   1.347       .  A
N349        N350   1.327       .  A
N349      Mn1191   2.218   1_455  S
N350        C352   1.357       .  A
Mn351      N1430   2.197       .  S
Mn351      N1447   2.183       .  S
C352        C524   1.470       .  S
C353        C488   1.470       .  S
N354        N355   1.320       .  A
N354        N360   1.320       .  A
N354       Mn362   2.217       .  S
N355        C365   1.354       .  A
N356        N357   1.328       .  A
N356        N358   1.319       .  A
N356      Mn1467   2.223   1_455  S
N357        C366   1.356       .  A
N358        N359   1.315       .  A
N358      Mn1466   2.203   1_455  S
N359        C366   1.349       .  A
N360        N361   1.317       .  A
N360       Mn363   2.198       .  S
N361        C365   1.348       .  A
Mn362      N1436   2.221       .  S
Mn362      N1462   2.203       .  S
Mn362      Cl364   2.549       .  S
Mn363      N1177   2.218   1_556  S
Mn363      N1460   2.223       .  S
Mn363      Cl364   2.568       .  S
C365        C543   1.459       .  S
C366        C431   1.478       .  S
C367        C399   1.496       .  S
C367        C368   1.528       .  S
C367        C373   1.527       .  S
C367        C371   1.523       .  S
C368        H375   1.087       .  S
C368        C369   1.369       .  D
C369        C370   1.544       .  S
C370        C374   1.548       .  S
C370        C372   1.539       .  S
C370        H376   1.111       .  S
C371        H377   1.087       .  S
C371        C372   1.361       .  D
C373        H378   1.087       .  S
C373        C374   1.364       .  D
C374        C444   1.474       .  S
N379        N380   1.320       .  A
N379        N385   1.317       .  A
N380        C387   1.353       .  A
N381        N383   1.316       .  A
N381        N382   1.313       .  A
N381       Mn949   2.185       .  S
N382        C388   1.348       .  A
N383        N384   1.326       .  A
N383       Mn684   2.209   1_556  S
N384        C388   1.355       .  A
N385        N386   1.327       .  A
N385       Mn397   2.221       .  S
N386        C387   1.356       .  A
C387        C534   1.487       .  S
C388        C429   1.470       .  S
N389        N395   1.317       .  A
N389        N390   1.323       .  A
N389       Mn695   2.216   1_556  S
N390        C398   1.355       .  A
N391        N392   1.318       .  A
N391        N393   1.315       .  A
N391       Mn397   2.195       .  S
N392        C399   1.352       .  A
N393        N394   1.319       .  A
N394        C399   1.351       .  A
N395        N396   1.321       .  A
N395       Mn949   2.211       .  S
N396        C398   1.351       .  A
Mn397       N933   2.185   1_545  S
Mn397       N947   2.211   1_545  S
C398        C548   1.473       .  S
N400        N401   1.327       .  A
N400        N406   1.318       .  A
N400       Mn960   2.228       .  S
N401        C409   1.357       .  A
N402        N404   1.317       .  A
N402        N403   1.326       .  A
N402       Mn420   2.217       .  S
N403        C410   1.356       .  A
N404        N405   1.315       .  A
N404       Mn408   2.187       .  S
N405        C410   1.347       .  A
N406        N407   1.316       .  A
N406       Mn972   2.199       .  S
N407        C409   1.349       .  A
Mn408       N659   2.209   1_545  S
Mn408       N952   2.228   1_545  S
Mn408      Cl421   2.557       .  S
C409        C519   1.479       .  S
C410        C498   1.471       .  S
N411        N412   1.317       .  A
N411        N417   1.317       .  A
N411       Mn419   2.201       .  S
N412        C422   1.350       .  A
N413        N414   1.317       .  A
N413        N415   1.316       .  A
N413       Mn972   2.203       .  S
N414        C423   1.351       .  A
N415        N416   1.324       .  A
N415       Mn971   2.204       .  S
N416        C423   1.353       .  A
N417        N418   1.327       .  A
N417       Mn420   2.223       .  S
N418        C422   1.357       .  A
Mn419       N665   2.216   1_545  S
Mn419       N967   2.204   1_545  S
Mn419      Cl421   2.554       .  S
Mn420       N958   2.199   1_545  S
Mn420       N965   2.203   1_545  S
Mn420      Cl421   2.552       .  S
C422        C510   1.478       .  S
C423        C486   1.473       .  S
C424        C425   1.527       .  S
C424        C430   1.521       .  S
C424        C428   1.520       .  S
C425        H432   1.087       .  S
C425        C426   1.367       .  D
C426        C466   1.484       .  S
C426        C427   1.557       .  S
C427        C431   1.551       .  S
C427        C429   1.550       .  S
C427        H433   1.110       .  S
C428        H434   1.087       .  S
C428        C429   1.362       .  D
C430        H435   1.087       .  S
C430        C431   1.364       .  D
N436        N437   1.322       .  A
N436        N442   1.317       .  A
N436      Mn1569   2.214       .  S
N437        C444   1.353       .  A
N438        N440   1.315       .  A
N438        N439   1.318       .  A
N438      Mn1006   2.188       .  S
N439        C445   1.350       .  A
N440        N441   1.321       .  A
N440      Mn2121   2.208       .  S
N441        C445   1.355       .  A
N442        N443   1.322       .  A
N442       Mn454   2.213       .  S
N443        C444   1.354       .  A
C445        C541   1.500       .  S
N446        N452   1.318       .  A
N446        N447   1.329       .  A
N446      Mn2132   2.233       .  S
N447        C455   1.359       .  A
N448        N449   1.323       .  A
N448        N450   1.316       .  A
N448       Mn454   2.197       .  S
N449        C456   1.352       .  A
N450        N451   1.318       .  A
N450      Mn1580   2.209       .  S
N451        C456   1.352       .  A
N452        N453   1.316       .  A
N452      Mn1006   2.195       .  S
N453        C455   1.348       .  A
Mn454       N990   2.188   1_545  S
Mn454      N1004   2.195   1_545  S
Mn454     Cl1582   2.549       .  S
C455        C483   1.481       .  S
C456        C507   1.473       .  S
N457        N458   1.327       .  A
N457        N463   1.317       .  A
N457      Mn1017   2.220       .  S
N458        C466   1.356       .  A
N459        N461   1.317       .  A
N459        N460   1.328       .  A
N459       Mn477   2.225       .  S
N460        C467   1.357       .  A
N461        N462   1.315       .  A
N461       Mn465   2.195       .  S
N462        C467   1.349       .  A
N463        N464   1.318       .  A
N463      Mn1029   2.211       .  S
N464        C466   1.353       .  A
Mn465      N1540   2.215   1_455  S
Mn465      N2096   2.208   1_445  S
Mn465      N1009   2.220   1_545  S
Mn465      Cl478   2.554       .  S
C467        C531   1.479       .  S
N468        N469   1.318       .  A
N468        N474   1.319       .  A
N468       Mn476   2.207       .  S
N469        C479   1.350       .  A
N470        N471   1.317       .  A
N470        N472   1.318       .  A
N470      Mn1029   2.206       .  S
N471        C480   1.350       .  A
N472        N473   1.328       .  A
N472      Mn1028   2.228       .  S
N473        C480   1.357       .  A
N474        N475   1.326       .  A
N474       Mn477   2.224       .  S
N475        C479   1.356       .  A
Mn476      N2102   2.234   1_445  S
Mn476      N1554   2.210   1_455  S
Mn476      N1024   2.228   1_545  S
Mn476      Cl478   2.561       .  S
Mn477      N1015   2.211   1_545  S
Mn477      N1022   2.206   1_545  S
Mn477      Cl478   2.555       .  S
Cl478     Mn1558   2.548   1_455  S
C479        C500   1.479       .  S
C480        C522   1.483       .  S
C481        C482   1.530       .  S
C481        C487   1.520       .  S
C481        C485   1.525       .  S
C482        H489   1.087       .  S
C482        C483   1.369       .  D
C483        C484   1.551       .  S
C484        C488   1.544       .  S
C484        C486   1.551       .  S
C484        H490   1.111       .  S
C485        H491   1.087       .  S
C485        C486   1.365       .  D
C487        H492   1.087       .  S
C487        C488   1.361       .  D
C493        C494   1.519       .  S
C493        C499   1.530       .  S
C493        C497   1.529       .  S
C494        H501   1.087       .  S
C494        C495   1.360       .  D
C495        C496   1.537       .  S
C496        C500   1.549       .  S
C496        C498   1.545       .  S
C496        H502   1.111       .  S
C497        H503   1.087       .  S
C497        C498   1.364       .  D
C499        H504   1.087       .  S
C499        C500   1.366       .  D
C505        C506   1.527       .  S
C505        C511   1.522       .  S
C505        C509   1.530       .  S
C506        H513   1.087       .  S
C506        C507   1.364       .  D
C507        C508   1.548       .  S
C508        C512   1.541       .  S
C508        C510   1.549       .  S
C508        H514   1.111       .  S
C509        H515   1.087       .  S
C509        C510   1.366       .  D
C511        H516   1.087       .  S
C511        C512   1.360       .  D
C517        C518   1.530       .  S
C517        C523   1.518       .  S
C517        C521   1.529       .  S
C518        H525   1.087       .  S
C518        C519   1.370       .  D
C519        C520   1.550       .  S
C520        C524   1.544       .  S
C520        C522   1.554       .  S
C520        H526   1.111       .  S
C521        H527   1.087       .  S
C521        C522   1.368       .  D
C523        H528   1.088       .  S
C523        C524   1.362       .  D
C529        C530   1.524       .  S
C529        C535   1.518       .  S
C529        C533   1.535       .  S
C530        H537   1.087       .  S
C530        C531   1.363       .  D
C531        C532   1.551       .  S
C532        C536   1.549       .  S
C532        C534   1.554       .  S
C532        H538   1.110       .  S
C533        H539   1.086       .  S
C533        C534   1.368       .  D
C535        H540   1.087       .  S
C535        C536   1.361       .  D
C541        C542   1.526       .  S
C541        C547   1.529       .  S
C541        C545   1.532       .  S
C542        H549   1.087       .  S
C542        C543   1.362       .  D
C543        C544   1.540       .  S
C544        C548   1.545       .  S
C544        C546   1.544       .  S
C544        H550   1.111       .  S
C545        H551   1.087       .  S
C545        C546   1.368       .  D
C547        H552   1.087       .  S
C547        C548   1.364       .  D
N553        N554   1.320       .  A
N553        N559   1.314       .  A
N553       Mn582   2.208       .  S
N554        C561   1.355       .  A
N555        N557   1.313       .  A
N555        N556   1.319       .  A
N555       Mn571   2.194       .  S
N556        C562   1.353       .  A
N557        N558   1.319       .  A
N557       Mn582   2.189       .  S
N558        C562   1.352       .  A
N559        N560   1.318       .  A
N559       Mn571   2.186       .  S
N560        C561   1.350       .  A
C561        C788   1.460       .  S
C562        C757   1.495       .  S
N563        N569   1.314       .  A
N563        N564   1.320       .  A
N563       Mn593   2.207       .  S
N564        C572   1.355       .  A
N565        N566   1.318       .  A
N565        N567   1.312       .  A
N565       Mn571   2.192       .  S
N566        C573   1.353       .  A
N567        N568   1.317       .  A
N567       Mn593   2.178       .  S
N568        C573   1.350       .  A
N569        N570   1.320       .  A
N569       Mn571   2.194       .  S
N570        C572   1.353       .  A
Mn571      Cl595   2.535       .  S
C572        C793   1.502       .  S
C573        C771   1.452       .  S
N574        N575   1.317       .  A
N574        N580   1.316       .  A
N574       Mn582   2.196       .  S
N575        C583   1.350       .  A
N576        N578   1.314       .  A
N576        N577   1.313       .  A
N576       Mn594   2.178       .  S
N577        C584   1.348       .  A
N578        N579   1.321       .  A
N578       Mn582   2.187       .  S
N579        C584   1.351       .  A
N580        N581   1.325       .  A
N580       Mn594   2.214       .  S
N581        C583   1.355       .  A
Mn582      Cl595   2.539       .  S
C583        C822   1.475       .  S
C584        C648   1.456       .  S
N585        N586   1.319       .  A
N585        N591   1.314       .  A
N585       Mn593   2.196       .  S
N586        C596   1.353       .  A
N587        N588   1.318       .  A
N587        N589   1.314       .  A
N587       Mn594   2.196       .  S
N588        C597   1.354       .  A
N589        N590   1.317       .  A
N589       Mn593   2.178       .  S
N590        C597   1.349       .  A
N591        N592   1.320       .  A
N591       Mn594   2.208       .  S
N592        C596   1.354       .  A
Mn593      Cl595   2.535       .  S
Mn594      Cl595   2.538       .  S
C596        C812   1.464       .  S
C597        C700   1.492       .  S
N598        N599   1.319       .  A
N598        N604   1.313       .  A
N598       Mn627   2.199       .  S
N599        C606   1.355       .  A
N600        N602   1.311       .  A
N600        N601   1.315       .  A
N600      Mn1996   2.161   1_454  S
N601        C607   1.347       .  A
N602        N603   1.321       .  A
N602      Mn1731   2.198   1_455  S
N603        C607   1.355       .  A
N604        N605   1.316       .  A
N604       Mn892   2.172   1_554  S
N605        C606   1.349       .  A
C606        C781   1.492       .  S
C607        C769   1.492       .  S
N608        N614   1.314       .  A
N608        N609   1.322       .  A
N608      Mn1742   2.221   1_455  S
N609        C617   1.359       .  A
N610        N611   1.312       .  A
N610        N612   1.314       .  A
N610       Mn616   2.158       .  S
N611        C618   1.342       .  A
N612        N613   1.330       .  A
N612       Mn638   2.233       .  S
N613        C618   1.361       .  A
N614        N615   1.315       .  A
N614      Mn1720   2.167   1_455  S
N615        C617   1.347       .  A
Mn616      N1980   2.160       .  S
Mn616       N880   2.172       .  S
Mn616      N1718   2.167       .  S
Mn616      Cl640   2.526       .  S
C617        C805   1.496       .  S
C618        C645   1.475       .  S
N619        N620   1.311       .  A
N619        N625   1.318       .  A
N619      Mn1731   2.183   1_455  S
N620        C628   1.346       .  A
N621        N623   1.316       .  A
N621        N622   1.327       .  A
N621       Mn915   2.214   1_554  S
N622        C629   1.356       .  A
N623        N624   1.313       .  A
N623       Mn627   2.180       .  S
N624        C629   1.347       .  A
N625        N626   1.327       .  A
N625      Mn2019   2.218   1_454  S
N626        C628   1.357       .  A
Mn627      N1706   2.197       .  S
Mn627      N1723   2.183       .  S
Mn627      Cl916   2.527   1_554  S
C628        C800   1.470       .  S
C629        C764   1.470       .  S
N630        N631   1.320       .  A
N630        N636   1.320       .  A
N630       Mn638   2.217       .  S
N631        C641   1.354       .  A
N632        N633   1.328       .  A
N632        N634   1.319       .  A
N632      Mn1743   2.223   1_455  S
N633        C642   1.356       .  A
N634        N635   1.315       .  A
N634      Mn1742   2.203   1_455  S
N635        C642   1.349       .  A
N636        N637   1.317       .  A
N636       Mn639   2.198       .  S
N637        C641   1.348       .  A
Mn638      N1712   2.221       .  S
Mn638      N1738   2.203       .  S
Mn638      Cl640   2.549       .  S
Mn639       N897   2.214       .  S
Mn639      N2005   2.218       .  S
Mn639      N1736   2.223       .  S
Mn639      Cl640   2.568       .  S
Cl640      Mn903   2.527       .  S
C641        C819   1.459       .  S
C642        C707   1.478       .  S
C643        C675   1.496       .  S
C643        C644   1.528       .  S
C643        C649   1.527       .  S
C643        C647   1.523       .  S
C644        H651   1.087       .  S
C644        C645   1.369       .  D
C645        C646   1.544       .  S
C646        C650   1.548       .  S
C646        C648   1.539       .  S
C646        H652   1.111       .  S
C647        H653   1.087       .  S
C647        C648   1.361       .  D
C649        H654   1.087       .  S
C649        C650   1.364       .  D
C650        C720   1.474       .  S
N655        N656   1.320       .  A
N655        N661   1.317       .  A
N655       Mn960   2.216       .  S
N656        C663   1.353       .  A
N657        N659   1.316       .  A
N657        N658   1.313       .  A
N658        C664   1.348       .  A
N659        N660   1.326       .  A
N660        C664   1.355       .  A
N661        N662   1.327       .  A
N661       Mn673   2.221       .  S
N662        C663   1.356       .  A
C663        C810   1.487       .  S
C664        C705   1.470       .  S
N665        N671   1.317       .  A
N665        N666   1.323       .  A
N666        C674   1.355       .  A
N667        N668   1.318       .  A
N667        N669   1.315       .  A
N667       Mn673   2.195       .  S
N668        C675   1.352       .  A
N669        N670   1.319       .  A
N669       Mn971   2.192       .  S
N670        C675   1.351       .  A
N671        N672   1.321       .  A
N672        C674   1.351       .  A
Mn673      Cl973   2.544       .  S
C674        C824   1.473       .  S
N676        N677   1.327       .  A
N676        N682   1.318       .  A
N677        C685   1.357       .  A
N678        N680   1.317       .  A
N678        N679   1.326       .  A
N678       Mn696   2.217       .  S
N679        C686   1.356       .  A
N680        N681   1.315       .  A
N680       Mn684   2.187       .  S
N681        C686   1.347       .  A
N682        N683   1.316       .  A
N683        C685   1.349       .  A
Mn684       N931   2.216   1_554  S
Mn684      Cl697   2.557       .  S
C685        C795   1.479       .  S
C686        C774   1.471       .  S
N687        N688   1.317       .  A
N687        N693   1.317       .  A
N687       Mn695   2.201       .  S
N688        C698   1.350       .  A
N689        N690   1.317       .  A
N689        N691   1.316       .  A
N690        C699   1.351       .  A
N691        N692   1.324       .  A
N692        C699   1.353       .  A
N693        N694   1.327       .  A
N693       Mn696   2.223       .  S
N694        C698   1.357       .  A
Mn695       N945   2.192   1_554  S
Mn695      Cl697   2.554       .  S
Mn696      Cl697   2.552       .  S
Cl697      Mn949   2.544   1_554  S
C698        C786   1.478       .  S
C699        C762   1.473       .  S
C700        C701   1.527       .  S
C700        C706   1.521       .  S
C700        C704   1.520       .  S
C701        H708   1.087       .  S
C701        C702   1.367       .  D
C702        C742   1.484       .  S
C702        C703   1.557       .  S
C703        C707   1.551       .  S
C703        C705   1.550       .  S
C703        H709   1.110       .  S
C704        H710   1.087       .  S
C704        C705   1.362       .  D
C706        H711   1.087       .  S
C706        C707   1.364       .  D
N712        N713   1.322       .  A
N712        N718   1.317       .  A
N712      Mn1845   2.214       .  S
N713        C720   1.353       .  A
N714        N716   1.315       .  A
N714        N715   1.318       .  A
N715        C721   1.350       .  A
N716        N717   1.321       .  A
N716      Mn1293   2.208   1_565  S
N717        C721   1.355       .  A
N718        N719   1.322       .  A
N718       Mn730   2.213       .  S
N719        C720   1.354       .  A
C721        C817   1.500       .  S
N722        N728   1.318       .  A
N722        N723   1.329       .  A
N722      Mn1304   2.233   1_565  S
N723        C731   1.359       .  A
N724        N725   1.323       .  A
N724        N726   1.316       .  A
N724       Mn730   2.197       .  S
N725        C732   1.352       .  A
N726        N727   1.318       .  A
N726      Mn1856   2.209       .  S
N727        C732   1.352       .  A
N728        N729   1.316       .  A
N729        C731   1.348       .  A
Mn730     Cl1858   2.549       .  S
C731        C759   1.481       .  S
C732        C783   1.473       .  S
N733        N734   1.327       .  A
N733        N739   1.317       .  A
N734        C742   1.356       .  A
N735        N737   1.317       .  A
N735        N736   1.328       .  A
N735       Mn753   2.225       .  S
N736        C743   1.357       .  A
N737        N738   1.315       .  A
N737       Mn741   2.195       .  S
N738        C743   1.349       .  A
N739        N740   1.318       .  A
N740        C742   1.353       .  A
Mn741      N1816   2.215   1_455  S
Mn741      N1268   2.208   1_455  S
Mn741      Cl754   2.554       .  S
C743        C807   1.479       .  S
N744        N745   1.318       .  A
N744        N750   1.319       .  A
N744       Mn752   2.207       .  S
N745        C755   1.350       .  A
N746        N747   1.317       .  A
N746        N748   1.318       .  A
N747        C756   1.350       .  A
N748        N749   1.328       .  A
N749        C756   1.357       .  A
N750        N751   1.326       .  A
N750       Mn753   2.224       .  S
N751        C755   1.356       .  A
Mn752      N1274   2.234   1_455  S
Mn752      N1830   2.210   1_455  S
Mn752      Cl754   2.561       .  S
Mn753      Cl754   2.555       .  S
Cl754     Mn1834   2.548   1_455  S
C755        C776   1.479       .  S
C756        C798   1.483       .  S
C757        C758   1.530       .  S
C757        C763   1.520       .  S
C757        C761   1.525       .  S
C758        H765   1.087       .  S
C758        C759   1.369       .  D
C759        C760   1.551       .  S
C760        C764   1.544       .  S
C760        C762   1.551       .  S
C760        H766   1.111       .  S
C761        H767   1.087       .  S
C761        C762   1.365       .  D
C763        H768   1.087       .  S
C763        C764   1.361       .  D
C769        C770   1.519       .  S
C769        C775   1.530       .  S
C769        C773   1.529       .  S
C770        H777   1.087       .  S
C770        C771   1.360       .  D
C771        C772   1.537       .  S
C772        C776   1.549       .  S
C772        C774   1.545       .  S
C772        H778   1.111       .  S
C773        H779   1.087       .  S
C773        C774   1.364       .  D
C775        H780   1.087       .  S
C775        C776   1.366       .  D
C781        C782   1.527       .  S
C781        C787   1.522       .  S
C781        C785   1.530       .  S
C782        H789   1.087       .  S
C782        C783   1.364       .  D
C783        C784   1.548       .  S
C784        C788   1.541       .  S
C784        C786   1.549       .  S
C784        H790   1.111       .  S
C785        H791   1.087       .  S
C785        C786   1.366       .  D
C787        H792   1.087       .  S
C787        C788   1.360       .  D
C793        C794   1.530       .  S
C793        C799   1.518       .  S
C793        C797   1.529       .  S
C794        H801   1.087       .  S
C794        C795   1.370       .  D
C795        C796   1.550       .  S
C796        C800   1.544       .  S
C796        C798   1.554       .  S
C796        H802   1.111       .  S
C797        H803   1.087       .  S
C797        C798   1.368       .  D
C799        H804   1.088       .  S
C799        C800   1.362       .  D
C805        C806   1.524       .  S
C805        C811   1.518       .  S
C805        C809   1.535       .  S
C806        H813   1.087       .  S
C806        C807   1.363       .  D
C807        C808   1.551       .  S
C808        C812   1.549       .  S
C808        C810   1.554       .  S
C808        H814   1.110       .  S
C809        H815   1.086       .  S
C809        C810   1.368       .  D
C811        H816   1.087       .  S
C811        C812   1.361       .  D
C817        C818   1.526       .  S
C817        C823   1.529       .  S
C817        C821   1.532       .  S
C818        H825   1.087       .  S
C818        C819   1.362       .  D
C819        C820   1.540       .  S
C820        C824   1.545       .  S
C820        C822   1.544       .  S
C820        H826   1.111       .  S
C821        H827   1.087       .  S
C821        C822   1.368       .  D
C823        H828   1.087       .  S
C823        C824   1.364       .  D
N829        N830   1.320       .  A
N829        N835   1.314       .  A
N829       Mn858   2.208       .  S
N830        C837   1.355       .  A
N831        N833   1.313       .  A
N831        N832   1.319       .  A
N831       Mn847   2.194       .  S
N832        C838   1.353       .  A
N833        N834   1.319       .  A
N833       Mn858   2.189       .  S
N834        C838   1.352       .  A
N835        N836   1.318       .  A
N835       Mn847   2.186       .  S
N836        C837   1.350       .  A
C837       C1064   1.460       .  S
C838       C1033   1.495       .  S
N839        N845   1.314       .  A
N839        N840   1.320       .  A
N839       Mn869   2.207       .  S
N840        C848   1.355       .  A
N841        N842   1.318       .  A
N841        N843   1.312       .  A
N841       Mn847   2.192       .  S
N842        C849   1.353       .  A
N843        N844   1.317       .  A
N843       Mn869   2.178       .  S
N844        C849   1.350       .  A
N845        N846   1.320       .  A
N845       Mn847   2.194       .  S
N846        C848   1.353       .  A
Mn847      Cl871   2.535       .  S
C848       C1069   1.502       .  S
C849       C1047   1.452       .  S
N850        N851   1.317       .  A
N850        N856   1.316       .  A
N850       Mn858   2.196       .  S
N851        C859   1.350       .  A
N852        N854   1.314       .  A
N852        N853   1.313       .  A
N852       Mn870   2.178       .  S
N853        C860   1.348       .  A
N854        N855   1.321       .  A
N854       Mn858   2.187       .  S
N855        C860   1.351       .  A
N856        N857   1.325       .  A
N856       Mn870   2.214       .  S
N857        C859   1.355       .  A
Mn858      Cl871   2.539       .  S
C859       C1098   1.475       .  S
C860        C924   1.456       .  S
N861        N862   1.319       .  A
N861        N867   1.314       .  A
N861       Mn869   2.195       .  S
N862        C872   1.353       .  A
N863        N864   1.318       .  A
N863        N865   1.314       .  A
N863       Mn870   2.196       .  S
N864        C873   1.354       .  A
N865        N866   1.317       .  A
N865       Mn869   2.178       .  S
N866        C873   1.349       .  A
N867        N868   1.320       .  A
N867       Mn870   2.208       .  S
N868        C872   1.354       .  A
Mn869      Cl871   2.535       .  S
Mn870      Cl871   2.538       .  S
C872       C1088   1.464       .  S
C873        C976   1.492       .  S
N874        N875   1.319       .  A
N874        N880   1.313       .  A
N874       Mn903   2.199       .  S
N875        C882   1.355       .  A
N876        N878   1.311       .  A
N876        N877   1.315       .  A
N876      Mn1720   2.161   1_455  S
N877        C883   1.347       .  A
N878        N879   1.321       .  A
N878      Mn2007   2.198   1_455  S
N879        C883   1.355       .  A
N880        N881   1.316       .  A
N881        C882   1.349       .  A
C882       C1057   1.492       .  S
C883       C1045   1.492       .  S
N884        N890   1.314       .  A
N884        N885   1.322       .  A
N884      Mn2018   2.221   1_455  S
N885        C893   1.359       .  A
N886        N887   1.312       .  A
N886        N888   1.314       .  A
N886       Mn892   2.158       .  S
N887        C894   1.342       .  A
N888        N889   1.330       .  A
N888       Mn914   2.233       .  S
N889        C894   1.361       .  A
N890        N891   1.315       .  A
N890      Mn1996   2.167   1_455  S
N891        C893   1.347       .  A
Mn892      N1704   2.160   1_556  S
Mn892      N1994   2.167       .  S
Mn892      Cl916   2.526       .  S
C893       C1081   1.496       .  S
C894        C921   1.475       .  S
N895        N896   1.311       .  A
N895        N901   1.318       .  A
N895      Mn2007   2.183   1_455  S
N896        C904   1.346       .  A
N897        N899   1.316       .  A
N897        N898   1.327       .  A
N898        C905   1.356       .  A
N899        N900   1.313       .  A
N899       Mn903   2.180       .  S
N900        C905   1.347       .  A
N901        N902   1.327       .  A
N901      Mn1743   2.218   1_455  S
N902        C904   1.357       .  A
Mn903      N1982   2.197       .  S
Mn903      N1999   2.183       .  S
C904       C1076   1.470       .  S
C905       C1040   1.470       .  S
N906        N907   1.320       .  A
N906        N912   1.320       .  A
N906       Mn914   2.217       .  S
N907        C917   1.354       .  A
N908        N909   1.328       .  A
N908        N910   1.319       .  A
N908      Mn2019   2.223   1_455  S
N909        C918   1.356       .  A
N910        N911   1.315       .  A
N910      Mn2018   2.203   1_455  S
N911        C918   1.349       .  A
N912        N913   1.317       .  A
N912       Mn915   2.198       .  S
N913        C917   1.348       .  A
Mn914      N1988   2.221       .  S
Mn914      N2014   2.203       .  S
Mn914      Cl916   2.549       .  S
Mn915      N1729   2.218   1_556  S
Mn915      N2012   2.223       .  S
Mn915      Cl916   2.568       .  S
C917       C1095   1.459       .  S
C918        C983   1.478       .  S
C919        C951   1.496       .  S
C919        C920   1.528       .  S
C919        C925   1.527       .  S
C919        C923   1.523       .  S
C920        H927   1.087       .  S
C920        C921   1.369       .  D
C921        C922   1.544       .  S
C922        C926   1.548       .  S
C922        C924   1.539       .  S
C922        H928   1.111       .  S
C923        H929   1.087       .  S
C923        C924   1.361       .  D
C925        H930   1.087       .  S
C925        C926   1.364       .  D
C926        C996   1.474       .  S
N931        N932   1.320       .  A
N931        N937   1.317       .  A
N932        C939   1.353       .  A
N933        N935   1.316       .  A
N933        N934   1.313       .  A
N934        C940   1.348       .  A
N935        N936   1.326       .  A
N936        C940   1.355       .  A
N937        N938   1.327       .  A
N937       Mn949   2.221       .  S
N938        C939   1.356       .  A
C939       C1086   1.487       .  S
C940        C981   1.470       .  S
N941        N947   1.317       .  A
N941        N942   1.323       .  A
N942        C950   1.355       .  A
N943        N944   1.318       .  A
N943        N945   1.315       .  A
N943       Mn949   2.195       .  S
N944        C951   1.352       .  A
N945        N946   1.319       .  A
N946        C951   1.351       .  A
N947        N948   1.321       .  A
N948        C950   1.351       .  A
C950       C1100   1.473       .  S
N952        N953   1.327       .  A
N952        N958   1.318       .  A
N953        C961   1.357       .  A
N954        N956   1.317       .  A
N954        N955   1.326       .  A
N954       Mn972   2.217       .  S
N955        C962   1.356       .  A
N956        N957   1.315       .  A
N956       Mn960   2.187       .  S
N957        C962   1.347       .  A
N958        N959   1.316       .  A
N959        C961   1.349       .  A
Mn960      Cl973   2.557       .  S
C961       C1071   1.479       .  S
C962       C1050   1.471       .  S
N963        N964   1.317       .  A
N963        N969   1.317       .  A
N963       Mn971   2.201       .  S
N964        C974   1.350       .  A
N965        N966   1.317       .  A
N965        N967   1.316       .  A
N966        C975   1.351       .  A
N967        N968   1.324       .  A
N968        C975   1.353       .  A
N969        N970   1.327       .  A
N969       Mn972   2.223       .  S
N970        C974   1.357       .  A
Mn971      Cl973   2.554       .  S
Mn972      Cl973   2.552       .  S
C974       C1062   1.478       .  S
C975       C1038   1.473       .  S
C976        C977   1.527       .  S
C976        C982   1.521       .  S
C976        C980   1.520       .  S
C977        H984   1.087       .  S
C977        C978   1.367       .  D
C978       C1018   1.484       .  S
C978        C979   1.557       .  S
C979        C983   1.551       .  S
C979        C981   1.550       .  S
C979        H985   1.110       .  S
C980        H986   1.087       .  S
C980        C981   1.362       .  D
C982        H987   1.087       .  S
C982        C983   1.364       .  D
N988        N989   1.322       .  A
N988        N994   1.317       .  A
N988      Mn2121   2.214       .  S
N989        C996   1.353       .  A
N990        N992   1.315       .  A
N990        N991   1.318       .  A
N991        C997   1.350       .  A
N992        N993   1.321       .  A
N992      Mn1569   2.208   1_565  S
N993        C997   1.355       .  A
N994        N995   1.322       .  A
N994      Mn1006   2.213       .  S
N995        C996   1.354       .  A
C997       C1093   1.500       .  S
N998       N1004   1.318       .  A
N998        N999   1.329       .  A
N998      Mn1580   2.233   1_565  S
N999       C1007   1.359       .  A
N1000      N1001   1.323       .  A
N1000      N1002   1.316       .  A
N1000     Mn1006   2.197       .  S
N1001      C1008   1.352       .  A
N1002      N1003   1.318       .  A
N1002     Mn2132   2.209       .  S
N1003      C1008   1.352       .  A
N1004      N1005   1.316       .  A
N1005      C1007   1.348       .  A
Mn1006    Cl2134   2.549       .  S
C1007      C1035   1.481       .  S
C1008      C1059   1.473       .  S
N1009      N1010   1.327       .  A
N1009      N1015   1.317       .  A
N1010      C1018   1.356       .  A
N1011      N1013   1.317       .  A
N1011      N1012   1.328       .  A
N1011     Mn1029   2.225       .  S
N1012      C1019   1.357       .  A
N1013      N1014   1.315       .  A
N1013     Mn1017   2.195       .  S
N1014      C1019   1.349       .  A
N1015      N1016   1.318       .  A
N1016      C1018   1.353       .  A
Mn1017     N2092   2.215   1_455  S
Mn1017     N1544   2.208   1_455  S
Mn1017    Cl1030   2.554       .  S
C1019      C1083   1.479       .  S
N1020      N1021   1.318       .  A
N1020      N1026   1.319       .  A
N1020     Mn1028   2.207       .  S
N1021      C1031   1.350       .  A
N1022      N1023   1.317       .  A
N1022      N1024   1.318       .  A
N1023      C1032   1.350       .  A
N1024      N1025   1.328       .  A
N1025      C1032   1.357       .  A
N1026      N1027   1.326       .  A
N1026     Mn1029   2.224       .  S
N1027      C1031   1.356       .  A
Mn1028     N1550   2.234   1_455  S
Mn1028     N2106   2.210   1_455  S
Mn1028    Cl1030   2.561       .  S
Mn1029    Cl1030   2.555       .  S
Cl1030    Mn2110   2.548   1_455  S
C1031      C1052   1.479       .  S
C1032      C1074   1.483       .  S
C1033      C1034   1.530       .  S
C1033      C1039   1.520       .  S
C1033      C1037   1.525       .  S
C1034      H1041   1.087       .  S
C1034      C1035   1.369       .  D
C1035      C1036   1.551       .  S
C1036      C1040   1.544       .  S
C1036      C1038   1.551       .  S
C1036      H1042   1.111       .  S
C1037      H1043   1.087       .  S
C1037      C1038   1.365       .  D
C1039      H1044   1.087       .  S
C1039      C1040   1.361       .  D
C1045      C1046   1.519       .  S
C1045      C1051   1.530       .  S
C1045      C1049   1.529       .  S
C1046      H1053   1.087       .  S
C1046      C1047   1.360       .  D
C1047      C1048   1.537       .  S
C1048      C1052   1.549       .  S
C1048      C1050   1.545       .  S
C1048      H1054   1.111       .  S
C1049      H1055   1.087       .  S
C1049      C1050   1.364       .  D
C1051      H1056   1.087       .  S
C1051      C1052   1.366       .  D
C1057      C1058   1.527       .  S
C1057      C1063   1.522       .  S
C1057      C1061   1.530       .  S
C1058      H1065   1.087       .  S
C1058      C1059   1.364       .  D
C1059      C1060   1.548       .  S
C1060      C1064   1.541       .  S
C1060      C1062   1.549       .  S
C1060      H1066   1.111       .  S
C1061      H1067   1.087       .  S
C1061      C1062   1.366       .  D
C1063      H1068   1.087       .  S
C1063      C1064   1.360       .  D
C1069      C1070   1.530       .  S
C1069      C1075   1.518       .  S
C1069      C1073   1.529       .  S
C1070      H1077   1.087       .  S
C1070      C1071   1.370       .  D
C1071      C1072   1.550       .  S
C1072      C1076   1.544       .  S
C1072      C1074   1.554       .  S
C1072      H1078   1.111       .  S
C1073      H1079   1.087       .  S
C1073      C1074   1.368       .  D
C1075      H1080   1.088       .  S
C1075      C1076   1.362       .  D
C1081      C1082   1.524       .  S
C1081      C1087   1.518       .  S
C1081      C1085   1.535       .  S
C1082      H1089   1.087       .  S
C1082      C1083   1.363       .  D
C1083      C1084   1.551       .  S
C1084      C1088   1.549       .  S
C1084      C1086   1.554       .  S
C1084      H1090   1.110       .  S
C1085      H1091   1.086       .  S
C1085      C1086   1.368       .  D
C1087      H1092   1.087       .  S
C1087      C1088   1.361       .  D
C1093      C1094   1.526       .  S
C1093      C1099   1.529       .  S
C1093      C1097   1.532       .  S
C1094      H1101   1.087       .  S
C1094      C1095   1.362       .  D
C1095      C1096   1.540       .  S
C1096      C1100   1.545       .  S
C1096      C1098   1.544       .  S
C1096      H1102   1.111       .  S
C1097      H1103   1.087       .  S
C1097      C1098   1.368       .  D
C1099      H1104   1.087       .  S
C1099      C1100   1.364       .  D
N1105      N1106   1.320       .  A
N1105      N1111   1.314       .  A
N1105     Mn1134   2.208       .  S
N1106      C1113   1.354       .  A
N1107      N1109   1.313       .  A
N1107      N1108   1.319       .  A
N1107     Mn1123   2.194       .  S
N1108      C1114   1.353       .  A
N1109      N1110   1.319       .  A
N1109     Mn1134   2.189       .  S
N1110      C1114   1.352       .  A
N1111      N1112   1.318       .  A
N1111     Mn1123   2.186       .  S
N1112      C1113   1.350       .  A
C1113      C1340   1.460       .  S
C1114      C1309   1.495       .  S
N1115      N1121   1.314       .  A
N1115      N1116   1.320       .  A
N1115     Mn1145   2.207       .  S
N1116      C1124   1.355       .  A
N1117      N1118   1.318       .  A
N1117      N1119   1.312       .  A
N1117     Mn1123   2.192       .  S
N1118      C1125   1.353       .  A
N1119      N1120   1.317       .  A
N1119     Mn1145   2.178       .  S
N1120      C1125   1.350       .  A
N1121      N1122   1.320       .  A
N1121     Mn1123   2.193       .  S
N1122      C1124   1.353       .  A
Mn1123    Cl1147   2.535       .  S
C1124      C1345   1.501       .  S
C1125      C1323   1.452       .  S
N1126      N1127   1.317       .  A
N1126      N1132   1.316       .  A
N1126     Mn1134   2.196       .  S
N1127      C1135   1.350       .  A
N1128      N1130   1.314       .  A
N1128      N1129   1.313       .  A
N1128     Mn1146   2.179       .  S
N1129      C1136   1.348       .  A
N1130      N1131   1.321       .  A
N1130     Mn1134   2.187       .  S
N1131      C1136   1.351       .  A
N1132      N1133   1.325       .  A
N1132     Mn1146   2.214       .  S
N1133      C1135   1.355       .  A
Mn1134    Cl1147   2.539       .  S
C1135      C1374   1.475       .  S
C1136      C1200   1.456       .  S
N1137      N1138   1.319       .  A
N1137      N1143   1.314       .  A
N1137     Mn1145   2.195       .  S
N1138      C1148   1.353       .  A
N1139      N1140   1.318       .  A
N1139      N1141   1.314       .  A
N1139     Mn1146   2.197       .  S
N1140      C1149   1.354       .  A
N1141      N1142   1.317       .  A
N1141     Mn1145   2.179       .  S
N1142      C1149   1.349       .  A
N1143      N1144   1.320       .  A
N1143     Mn1146   2.207       .  S
N1144      C1148   1.354       .  A
Mn1145    Cl1147   2.535       .  S
Mn1146    Cl1147   2.538       .  S
C1148      C1364   1.463       .  S
C1149      C1252   1.492       .  S
N1150      N1151   1.319       .  A
N1150      N1156   1.313       .  A
N1150     Mn1179   2.199       .  S
N1151      C1158   1.355       .  A
N1152      N1154   1.311       .  A
N1152      N1153   1.315       .  A
N1153      C1159   1.347       .  A
N1154      N1155   1.320       .  A
N1155      C1159   1.355       .  A
N1156      N1157   1.316       .  A
N1156     Mn1444   2.172   1_554  S
N1157      C1158   1.349       .  A
C1158      C1333   1.493       .  S
C1159      C1321   1.492       .  S
N1160      N1166   1.314       .  A
N1160      N1161   1.322       .  A
N1161      C1169   1.359       .  A
N1162      N1163   1.312       .  A
N1162      N1164   1.314       .  A
N1162     Mn1168   2.158       .  S
N1163      C1170   1.342       .  A
N1164      N1165   1.329       .  A
N1164     Mn1190   2.232       .  S
N1165      C1170   1.361       .  A
N1166      N1167   1.315       .  A
N1167      C1169   1.346       .  A
Mn1168     N1432   2.172       .  S
Mn1168    Cl1192   2.526       .  S
C1169      C1357   1.497       .  S
C1170      C1197   1.475       .  S
N1171      N1172   1.311       .  A
N1171      N1177   1.318       .  A
N1172      C1180   1.346       .  A
N1173      N1175   1.316       .  A
N1173      N1174   1.327       .  A
N1173     Mn1467   2.214   1_554  S
N1174      C1181   1.356       .  A
N1175      N1176   1.313       .  A
N1175     Mn1179   2.180       .  S
N1176      C1181   1.347       .  A
N1177      N1178   1.327       .  A
N1178      C1180   1.357       .  A
Mn1179    Cl1468   2.527   1_554  S
C1180      C1352   1.469       .  S
C1181      C1316   1.471       .  S
N1182      N1183   1.321       .  A
N1182      N1188   1.320       .  A
N1182     Mn1190   2.218       .  S
N1183      C1193   1.354       .  A
N1184      N1185   1.328       .  A
N1184      N1186   1.319       .  A
N1185      C1194   1.356       .  A
N1186      N1187   1.315       .  A
N1187      C1194   1.349       .  A
N1188      N1189   1.317       .  A
N1188     Mn1191   2.198       .  S
N1189      C1193   1.348       .  A
Mn1190    Cl1192   2.550       .  S
Mn1191     N1449   2.214       .  S
Mn1191    Cl1192   2.568       .  S
Cl1192    Mn1455   2.527       .  S
C1193      C1371   1.460       .  S
C1194      C1259   1.478       .  S
C1195      C1227   1.496       .  S
C1195      C1196   1.528       .  S
C1195      C1201   1.527       .  S
C1195      C1199   1.523       .  S
C1196      H1203   1.087       .  S
C1196      C1197   1.369       .  D
C1197      C1198   1.544       .  S
C1198      C1202   1.548       .  S
C1198      C1200   1.539       .  S
C1198      H1204   1.111       .  S
C1199      H1205   1.087       .  S
C1199      C1200   1.361       .  D
C1201      H1206   1.087       .  S
C1201      C1202   1.364       .  D
C1202      C1272   1.474       .  S
N1207      N1208   1.320       .  A
N1207      N1213   1.317       .  A
N1207     Mn1512   2.217       .  S
N1208      C1215   1.354       .  A
N1209      N1211   1.316       .  A
N1209      N1210   1.313       .  A
N1209     Mn1777   2.185       .  S
N1210      C1216   1.348       .  A
N1211      N1212   1.326       .  A
N1211     Mn2064   2.209       .  S
N1212      C1216   1.355       .  A
N1213      N1214   1.328       .  A
N1213     Mn1225   2.222       .  S
N1214      C1215   1.356       .  A
C1215      C1362   1.487       .  S
C1216      C1257   1.470       .  S
N1217      N1223   1.317       .  A
N1217      N1218   1.323       .  A
N1217     Mn2075   2.216       .  S
N1218      C1226   1.355       .  A
N1219      N1220   1.318       .  A
N1219      N1221   1.315       .  A
N1219     Mn1225   2.194       .  S
N1220      C1227   1.352       .  A
N1221      N1222   1.319       .  A
N1221     Mn1523   2.192       .  S
N1222      C1227   1.351       .  A
N1223      N1224   1.321       .  A
N1223     Mn1777   2.212       .  S
N1224      C1226   1.351       .  A
Mn1225     N1761   2.185   1_545  S
Mn1225     N1775   2.212   1_545  S
Mn1225    Cl1525   2.544       .  S
C1226      C1376   1.474       .  S
N1228      N1229   1.327       .  A
N1228      N1234   1.318       .  A
N1228     Mn1788   2.228       .  S
N1229      C1237   1.357       .  A
N1230      N1232   1.317       .  A
N1230      N1231   1.326       .  A
N1230     Mn1248   2.217       .  S
N1231      C1238   1.356       .  A
N1232      N1233   1.315       .  A
N1232     Mn1236   2.187       .  S
N1233      C1238   1.347       .  A
N1234      N1235   1.316       .  A
N1234     Mn1800   2.198       .  S
N1235      C1237   1.349       .  A
Mn1236     N1483   2.217   1_554  S
Mn1236     N2039   2.209   1_544  S
Mn1236     N1780   2.228   1_545  S
Mn1236    Cl1249   2.557       .  S
C1237      C1347   1.478       .  S
C1238      C1326   1.470       .  S
N1239      N1240   1.317       .  A
N1239      N1245   1.317       .  A
N1239     Mn1247   2.201       .  S
N1240      C1250   1.350       .  A
N1241      N1242   1.317       .  A
N1241      N1243   1.316       .  A
N1241     Mn1800   2.202       .  S
N1242      C1251   1.351       .  A
N1243      N1244   1.324       .  A
N1243     Mn1799   2.203       .  S
N1244      C1251   1.353       .  A
N1245      N1246   1.327       .  A
N1245     Mn1248   2.223       .  S
N1246      C1250   1.357       .  A
Mn1247     N2045   2.216   1_544  S
Mn1247     N1497   2.192   1_554  S
Mn1247     N1795   2.203   1_545  S
Mn1247    Cl1249   2.554       .  S
Mn1248     N1786   2.198   1_545  S
Mn1248     N1793   2.202   1_545  S
Mn1248    Cl1249   2.552       .  S
Cl1249    Mn1501   2.544   1_554  S
C1250      C1338   1.478       .  S
C1251      C1314   1.473       .  S
C1252      C1253   1.527       .  S
C1252      C1258   1.521       .  S
C1252      C1256   1.520       .  S
C1253      H1260   1.087       .  S
C1253      C1254   1.367       .  D
C1254      C1294   1.483       .  S
C1254      C1255   1.557       .  S
C1255      C1259   1.551       .  S
C1255      C1257   1.550       .  S
C1255      H1261   1.110       .  S
C1256      H1262   1.087       .  S
C1256      C1257   1.362       .  D
C1258      H1263   1.087       .  S
C1258      C1259   1.364       .  D
N1264      N1265   1.322       .  A
N1264      N1270   1.317       .  A
N1265      C1272   1.353       .  A
N1266      N1268   1.315       .  A
N1266      N1267   1.318       .  A
N1266     Mn1834   2.188       .  S
N1267      C1273   1.350       .  A
N1268      N1269   1.321       .  A
N1269      C1273   1.355       .  A
N1270      N1271   1.322       .  A
N1270     Mn1282   2.213       .  S
N1271      C1272   1.354       .  A
C1273      C1369   1.500       .  S
N1274      N1280   1.318       .  A
N1274      N1275   1.329       .  A
N1275      C1283   1.359       .  A
N1276      N1277   1.323       .  A
N1276      N1278   1.316       .  A
N1276     Mn1282   2.197       .  S
N1277      C1284   1.352       .  A
N1278      N1279   1.318       .  A
N1279      C1284   1.352       .  A
N1280      N1281   1.316       .  A
N1280     Mn1834   2.195       .  S
N1281      C1283   1.348       .  A
Mn1282     N1818   2.188   1_545  S
Mn1282     N1832   2.195   1_545  S
C1283      C1311   1.481       .  S
C1284      C1335   1.473       .  S
N1285      N1286   1.327       .  A
N1285      N1291   1.317       .  A
N1285     Mn1845   2.219       .  S
N1286      C1294   1.356       .  A
N1287      N1289   1.317       .  A
N1287      N1288   1.328       .  A
N1287     Mn1305   2.224       .  S
N1288      C1295   1.357       .  A
N1289      N1290   1.315       .  A
N1289     Mn1293   2.194       .  S
N1290      C1295   1.349       .  A
N1291      N1292   1.318       .  A
N1291     Mn1857   2.210       .  S
N1292      C1294   1.352       .  A
Mn1293     N1837   2.219   1_545  S
Mn1293    Cl1306   2.554       .  S
C1295      C1359   1.479       .  S
N1296      N1297   1.318       .  A
N1296      N1302   1.319       .  A
N1296     Mn1304   2.207       .  S
N1297      C1307   1.351       .  A
N1298      N1299   1.317       .  A
N1298      N1300   1.318       .  A
N1298     Mn1857   2.205       .  S
N1299      C1308   1.350       .  A
N1300      N1301   1.328       .  A
N1300     Mn1856   2.227       .  S
N1301      C1308   1.357       .  A
N1302      N1303   1.326       .  A
N1302     Mn1305   2.223       .  S
N1303      C1307   1.356       .  A
Mn1304     N1852   2.227   1_545  S
Mn1304    Cl1306   2.560       .  S
Mn1305     N1843   2.210   1_545  S
Mn1305     N1850   2.205   1_545  S
Mn1305    Cl1306   2.554       .  S
C1307      C1328   1.479       .  S
C1308      C1350   1.482       .  S
C1309      C1310   1.531       .  S
C1309      C1315   1.520       .  S
C1309      C1313   1.525       .  S
C1310      H1317   1.087       .  S
C1310      C1311   1.369       .  D
C1311      C1312   1.551       .  S
C1312      C1316   1.544       .  S
C1312      C1314   1.551       .  S
C1312      H1318   1.111       .  S
C1313      H1319   1.087       .  S
C1313      C1314   1.365       .  D
C1315      H1320   1.087       .  S
C1315      C1316   1.362       .  D
C1321      C1322   1.519       .  S
C1321      C1327   1.530       .  S
C1321      C1325   1.528       .  S
C1322      H1329   1.087       .  S
C1322      C1323   1.360       .  D
C1323      C1324   1.537       .  S
C1324      C1328   1.549       .  S
C1324      C1326   1.545       .  S
C1324      H1330   1.111       .  S
C1325      H1331   1.087       .  S
C1325      C1326   1.364       .  D
C1327      H1332   1.087       .  S
C1327      C1328   1.366       .  D
C1333      C1334   1.527       .  S
C1333      C1339   1.522       .  S
C1333      C1337   1.530       .  S
C1334      H1341   1.087       .  S
C1334      C1335   1.364       .  D
C1335      C1336   1.548       .  S
C1336      C1340   1.541       .  S
C1336      C1338   1.549       .  S
C1336      H1342   1.111       .  S
C1337      H1343   1.087       .  S
C1337      C1338   1.366       .  D
C1339      H1344   1.087       .  S
C1339      C1340   1.360       .  D
C1345      C1346   1.530       .  S
C1345      C1351   1.518       .  S
C1345      C1349   1.529       .  S
C1346      H1353   1.087       .  S
C1346      C1347   1.370       .  D
C1347      C1348   1.550       .  S
C1348      C1352   1.544       .  S
C1348      C1350   1.554       .  S
C1348      H1354   1.111       .  S
C1349      H1355   1.087       .  S
C1349      C1350   1.367       .  D
C1351      H1356   1.088       .  S
C1351      C1352   1.362       .  D
C1357      C1358   1.524       .  S
C1357      C1363   1.517       .  S
C1357      C1361   1.535       .  S
C1358      H1365   1.087       .  S
C1358      C1359   1.363       .  D
C1359      C1360   1.551       .  S
C1360      C1364   1.549       .  S
C1360      C1362   1.554       .  S
C1360      H1366   1.110       .  S
C1361      H1367   1.086       .  S
C1361      C1362   1.368       .  D
C1363      H1368   1.087       .  S
C1363      C1364   1.361       .  D
C1369      C1370   1.526       .  S
C1369      C1375   1.529       .  S
C1369      C1373   1.532       .  S
C1370      H1377   1.087       .  S
C1370      C1371   1.362       .  D
C1371      C1372   1.540       .  S
C1372      C1376   1.545       .  S
C1372      C1374   1.545       .  S
C1372      H1378   1.111       .  S
C1373      H1379   1.087       .  S
C1373      C1374   1.368       .  D
C1375      H1380   1.087       .  S
C1375      C1376   1.364       .  D
N1381      N1382   1.320       .  A
N1381      N1387   1.314       .  A
N1381     Mn1410   2.208       .  S
N1382      C1389   1.354       .  A
N1383      N1385   1.313       .  A
N1383      N1384   1.319       .  A
N1383     Mn1399   2.194       .  S
N1384      C1390   1.353       .  A
N1385      N1386   1.319       .  A
N1385     Mn1410   2.189       .  S
N1386      C1390   1.352       .  A
N1387      N1388   1.318       .  A
N1387     Mn1399   2.186       .  S
N1388      C1389   1.350       .  A
C1389      C1616   1.460       .  S
C1390      C1585   1.495       .  S
N1391      N1397   1.314       .  A
N1391      N1392   1.320       .  A
N1391     Mn1421   2.207       .  S
N1392      C1400   1.355       .  A
N1393      N1394   1.318       .  A
N1393      N1395   1.312       .  A
N1393     Mn1399   2.192       .  S
N1394      C1401   1.353       .  A
N1395      N1396   1.317       .  A
N1395     Mn1421   2.178       .  S
N1396      C1401   1.350       .  A
N1397      N1398   1.320       .  A
N1397     Mn1399   2.193       .  S
N1398      C1400   1.353       .  A
Mn1399    Cl1423   2.535       .  S
C1400      C1621   1.501       .  S
C1401      C1599   1.452       .  S
N1402      N1403   1.317       .  A
N1402      N1408   1.316       .  A
N1402     Mn1410   2.196       .  S
N1403      C1411   1.350       .  A
N1404      N1406   1.314       .  A
N1404      N1405   1.313       .  A
N1404     Mn1422   2.179       .  S
N1405      C1412   1.348       .  A
N1406      N1407   1.321       .  A
N1406     Mn1410   2.187       .  S
N1407      C1412   1.351       .  A
N1408      N1409   1.325       .  A
N1408     Mn1422   2.214       .  S
N1409      C1411   1.355       .  A
Mn1410    Cl1423   2.539       .  S
C1411      C1650   1.475       .  S
C1412      C1476   1.456       .  S
N1413      N1414   1.319       .  A
N1413      N1419   1.314       .  A
N1413     Mn1421   2.195       .  S
N1414      C1424   1.353       .  A
N1415      N1416   1.318       .  A
N1415      N1417   1.314       .  A
N1415     Mn1422   2.197       .  S
N1416      C1425   1.354       .  A
N1417      N1418   1.317       .  A
N1417     Mn1421   2.179       .  S
N1418      C1425   1.349       .  A
N1419      N1420   1.320       .  A
N1419     Mn1422   2.207       .  S
N1420      C1424   1.354       .  A
Mn1421    Cl1423   2.535       .  S
Mn1422    Cl1423   2.538       .  S
C1424      C1640   1.463       .  S
C1425      C1528   1.492       .  S
N1426      N1427   1.319       .  A
N1426      N1432   1.313       .  A
N1426     Mn1455   2.199       .  S
N1427      C1434   1.355       .  A
N1428      N1430   1.311       .  A
N1428      N1429   1.315       .  A
N1429      C1435   1.347       .  A
N1430      N1431   1.320       .  A
N1431      C1435   1.355       .  A
N1432      N1433   1.316       .  A
N1433      C1434   1.349       .  A
C1434      C1609   1.493       .  S
C1435      C1597   1.492       .  S
N1436      N1442   1.314       .  A
N1436      N1437   1.322       .  A
N1437      C1445   1.359       .  A
N1438      N1439   1.312       .  A
N1438      N1440   1.314       .  A
N1438     Mn1444   2.158       .  S
N1439      C1446   1.342       .  A
N1440      N1441   1.329       .  A
N1440     Mn1466   2.232       .  S
N1441      C1446   1.361       .  A
N1442      N1443   1.315       .  A
N1443      C1445   1.346       .  A
Mn1444    Cl1468   2.526       .  S
C1445      C1633   1.497       .  S
C1446      C1473   1.475       .  S
N1447      N1448   1.311       .  A
N1447      N1453   1.318       .  A
N1448      C1456   1.346       .  A
N1449      N1451   1.316       .  A
N1449      N1450   1.327       .  A
N1450      C1457   1.356       .  A
N1451      N1452   1.313       .  A
N1451     Mn1455   2.180       .  S
N1452      C1457   1.347       .  A
N1453      N1454   1.327       .  A
N1454      C1456   1.357       .  A
C1456      C1628   1.469       .  S
C1457      C1592   1.471       .  S
N1458      N1459   1.321       .  A
N1458      N1464   1.320       .  A
N1458     Mn1466   2.218       .  S
N1459      C1469   1.354       .  A
N1460      N1461   1.328       .  A
N1460      N1462   1.319       .  A
N1461      C1470   1.356       .  A
N1462      N1463   1.315       .  A
N1463      C1470   1.349       .  A
N1464      N1465   1.317       .  A
N1464     Mn1467   2.198       .  S
N1465      C1469   1.348       .  A
Mn1466    Cl1468   2.550       .  S
Mn1467    Cl1468   2.568       .  S
C1469      C1647   1.460       .  S
C1470      C1535   1.478       .  S
C1471      C1503   1.496       .  S
C1471      C1472   1.528       .  S
C1471      C1477   1.527       .  S
C1471      C1475   1.523       .  S
C1472      H1479   1.087       .  S
C1472      C1473   1.369       .  D
C1473      C1474   1.544       .  S
C1474      C1478   1.548       .  S
C1474      C1476   1.539       .  S
C1474      H1480   1.111       .  S
C1475      H1481   1.087       .  S
C1475      C1476   1.361       .  D
C1477      H1482   1.087       .  S
C1477      C1478   1.364       .  D
C1478      C1548   1.474       .  S
N1483      N1484   1.320       .  A
N1483      N1489   1.317       .  A
N1484      C1491   1.354       .  A
N1485      N1487   1.316       .  A
N1485      N1486   1.313       .  A
N1485     Mn2053   2.185       .  S
N1486      C1492   1.348       .  A
N1487      N1488   1.326       .  A
N1487     Mn1788   2.209   1_556  S
N1488      C1492   1.355       .  A
N1489      N1490   1.328       .  A
N1489     Mn1501   2.222       .  S
N1490      C1491   1.356       .  A
C1491      C1638   1.487       .  S
C1492      C1533   1.470       .  S
N1493      N1499   1.317       .  A
N1493      N1494   1.323       .  A
N1493     Mn1799   2.216   1_556  S
N1494      C1502   1.355       .  A
N1495      N1496   1.318       .  A
N1495      N1497   1.315       .  A
N1495     Mn1501   2.194       .  S
N1496      C1503   1.352       .  A
N1497      N1498   1.319       .  A
N1498      C1503   1.351       .  A
N1499      N1500   1.321       .  A
N1499     Mn2053   2.212       .  S
N1500      C1502   1.351       .  A
Mn1501     N2037   2.185   1_545  S
Mn1501     N2051   2.212   1_545  S
C1502      C1652   1.474       .  S
N1504      N1505   1.327       .  A
N1504      N1510   1.318       .  A
N1504     Mn2064   2.228       .  S
N1505      C1513   1.357       .  A
N1506      N1508   1.317       .  A
N1506      N1507   1.326       .  A
N1506     Mn1524   2.217       .  S
N1507      C1514   1.356       .  A
N1508      N1509   1.315       .  A
N1508     Mn1512   2.187       .  S
N1509      C1514   1.347       .  A
N1510      N1511   1.316       .  A
N1510     Mn2076   2.198       .  S
N1511      C1513   1.349       .  A
Mn1512     N1763   2.209   1_545  S
Mn1512     N2056   2.228   1_545  S
Mn1512    Cl1525   2.557       .  S
C1513      C1623   1.478       .  S
C1514      C1602   1.470       .  S
N1515      N1516   1.317       .  A
N1515      N1521   1.317       .  A
N1515     Mn1523   2.201       .  S
N1516      C1526   1.350       .  A
N1517      N1518   1.317       .  A
N1517      N1519   1.316       .  A
N1517     Mn2076   2.202       .  S
N1518      C1527   1.351       .  A
N1519      N1520   1.324       .  A
N1519     Mn2075   2.203       .  S
N1520      C1527   1.353       .  A
N1521      N1522   1.327       .  A
N1521     Mn1524   2.223       .  S
N1522      C1526   1.357       .  A
Mn1523     N1769   2.216   1_545  S
Mn1523     N2071   2.203   1_545  S
Mn1523    Cl1525   2.554       .  S
Mn1524     N2062   2.198   1_545  S
Mn1524     N2069   2.202   1_545  S
Mn1524    Cl1525   2.552       .  S
C1526      C1614   1.478       .  S
C1527      C1590   1.473       .  S
C1528      C1529   1.527       .  S
C1528      C1534   1.521       .  S
C1528      C1532   1.520       .  S
C1529      H1536   1.087       .  S
C1529      C1530   1.367       .  D
C1530      C1570   1.483       .  S
C1530      C1531   1.557       .  S
C1531      C1535   1.551       .  S
C1531      C1533   1.550       .  S
C1531      H1537   1.110       .  S
C1532      H1538   1.087       .  S
C1532      C1533   1.362       .  D
C1534      H1539   1.087       .  S
C1534      C1535   1.364       .  D
N1540      N1541   1.322       .  A
N1540      N1546   1.317       .  A
N1541      C1548   1.353       .  A
N1542      N1544   1.315       .  A
N1542      N1543   1.318       .  A
N1542     Mn2110   2.188       .  S
N1543      C1549   1.350       .  A
N1544      N1545   1.321       .  A
N1545      C1549   1.355       .  A
N1546      N1547   1.322       .  A
N1546     Mn1558   2.213       .  S
N1547      C1548   1.354       .  A
C1549      C1645   1.500       .  S
N1550      N1556   1.318       .  A
N1550      N1551   1.329       .  A
N1551      C1559   1.359       .  A
N1552      N1553   1.323       .  A
N1552      N1554   1.316       .  A
N1552     Mn1558   2.197       .  S
N1553      C1560   1.352       .  A
N1554      N1555   1.318       .  A
N1555      C1560   1.352       .  A
N1556      N1557   1.316       .  A
N1556     Mn2110   2.195       .  S
N1557      C1559   1.348       .  A
Mn1558     N2094   2.188   1_545  S
Mn1558     N2108   2.195   1_545  S
C1559      C1587   1.481       .  S
C1560      C1611   1.473       .  S
N1561      N1562   1.327       .  A
N1561      N1567   1.317       .  A
N1561     Mn2121   2.219       .  S
N1562      C1570   1.356       .  A
N1563      N1565   1.317       .  A
N1563      N1564   1.328       .  A
N1563     Mn1581   2.224       .  S
N1564      C1571   1.357       .  A
N1565      N1566   1.315       .  A
N1565     Mn1569   2.194       .  S
N1566      C1571   1.349       .  A
N1567      N1568   1.318       .  A
N1567     Mn2133   2.210       .  S
N1568      C1570   1.352       .  A
Mn1569     N2113   2.219   1_545  S
Mn1569    Cl1582   2.554       .  S
C1571      C1635   1.479       .  S
N1572      N1573   1.318       .  A
N1572      N1578   1.319       .  A
N1572     Mn1580   2.207       .  S
N1573      C1583   1.350       .  A
N1574      N1575   1.317       .  A
N1574      N1576   1.318       .  A
N1574     Mn2133   2.205       .  S
N1575      C1584   1.350       .  A
N1576      N1577   1.328       .  A
N1576     Mn2132   2.227       .  S
N1577      C1584   1.357       .  A
N1578      N1579   1.326       .  A
N1578     Mn1581   2.223       .  S
N1579      C1583   1.356       .  A
Mn1580     N2128   2.227   1_545  S
Mn1580    Cl1582   2.560       .  S
Mn1581     N2119   2.210   1_545  S
Mn1581     N2126   2.205   1_545  S
Mn1581    Cl1582   2.554       .  S
C1583      C1604   1.479       .  S
C1584      C1626   1.482       .  S
C1585      C1586   1.531       .  S
C1585      C1591   1.520       .  S
C1585      C1589   1.525       .  S
C1586      H1593   1.087       .  S
C1586      C1587   1.369       .  D
C1587      C1588   1.551       .  S
C1588      C1592   1.544       .  S
C1588      C1590   1.551       .  S
C1588      H1594   1.111       .  S
C1589      H1595   1.087       .  S
C1589      C1590   1.365       .  D
C1591      H1596   1.087       .  S
C1591      C1592   1.362       .  D
C1597      C1598   1.519       .  S
C1597      C1603   1.530       .  S
C1597      C1601   1.528       .  S
C1598      H1605   1.087       .  S
C1598      C1599   1.360       .  D
C1599      C1600   1.537       .  S
C1600      C1604   1.549       .  S
C1600      C1602   1.545       .  S
C1600      H1606   1.111       .  S
C1601      H1607   1.087       .  S
C1601      C1602   1.364       .  D
C1603      H1608   1.087       .  S
C1603      C1604   1.366       .  D
C1609      C1610   1.527       .  S
C1609      C1615   1.522       .  S
C1609      C1613   1.530       .  S
C1610      H1617   1.087       .  S
C1610      C1611   1.364       .  D
C1611      C1612   1.548       .  S
C1612      C1616   1.541       .  S
C1612      C1614   1.549       .  S
C1612      H1618   1.111       .  S
C1613      H1619   1.087       .  S
C1613      C1614   1.366       .  D
C1615      H1620   1.087       .  S
C1615      C1616   1.360       .  D
C1621      C1622   1.530       .  S
C1621      C1627   1.518       .  S
C1621      C1625   1.529       .  S
C1622      H1629   1.087       .  S
C1622      C1623   1.370       .  D
C1623      C1624   1.550       .  S
C1624      C1628   1.544       .  S
C1624      C1626   1.554       .  S
C1624      H1630   1.111       .  S
C1625      H1631   1.087       .  S
C1625      C1626   1.367       .  D
C1627      H1632   1.088       .  S
C1627      C1628   1.362       .  D
C1633      C1634   1.524       .  S
C1633      C1639   1.517       .  S
C1633      C1637   1.535       .  S
C1634      H1641   1.087       .  S
C1634      C1635   1.363       .  D
C1635      C1636   1.551       .  S
C1636      C1640   1.549       .  S
C1636      C1638   1.554       .  S
C1636      H1642   1.110       .  S
C1637      H1643   1.086       .  S
C1637      C1638   1.368       .  D
C1639      H1644   1.087       .  S
C1639      C1640   1.361       .  D
C1645      C1646   1.526       .  S
C1645      C1651   1.529       .  S
C1645      C1649   1.532       .  S
C1646      H1653   1.087       .  S
C1646      C1647   1.362       .  D
C1647      C1648   1.540       .  S
C1648      C1652   1.545       .  S
C1648      C1650   1.545       .  S
C1648      H1654   1.111       .  S
C1649      H1655   1.087       .  S
C1649      C1650   1.368       .  D
C1651      H1656   1.087       .  S
C1651      C1652   1.364       .  D
N1657      N1658   1.320       .  A
N1657      N1663   1.314       .  A
N1657     Mn1686   2.208       .  S
N1658      C1665   1.354       .  A
N1659      N1661   1.313       .  A
N1659      N1660   1.319       .  A
N1659     Mn1675   2.194       .  S
N1660      C1666   1.353       .  A
N1661      N1662   1.319       .  A
N1661     Mn1686   2.189       .  S
N1662      C1666   1.352       .  A
N1663      N1664   1.318       .  A
N1663     Mn1675   2.186       .  S
N1664      C1665   1.350       .  A
C1665      C1892   1.460       .  S
C1666      C1861   1.495       .  S
N1667      N1673   1.314       .  A
N1667      N1668   1.320       .  A
N1667     Mn1697   2.207       .  S
N1668      C1676   1.355       .  A
N1669      N1670   1.318       .  A
N1669      N1671   1.312       .  A
N1669     Mn1675   2.192       .  S
N1670      C1677   1.353       .  A
N1671      N1672   1.317       .  A
N1671     Mn1697   2.178       .  S
N1672      C1677   1.350       .  A
N1673      N1674   1.320       .  A
N1673     Mn1675   2.193       .  S
N1674      C1676   1.353       .  A
Mn1675    Cl1699   2.535       .  S
C1676      C1897   1.501       .  S
C1677      C1875   1.452       .  S
N1678      N1679   1.317       .  A
N1678      N1684   1.316       .  A
N1678     Mn1686   2.196       .  S
N1679      C1687   1.350       .  A
N1680      N1682   1.314       .  A
N1680      N1681   1.313       .  A
N1680     Mn1698   2.179       .  S
N1681      C1688   1.348       .  A
N1682      N1683   1.321       .  A
N1682     Mn1686   2.187       .  S
N1683      C1688   1.351       .  A
N1684      N1685   1.325       .  A
N1684     Mn1698   2.214       .  S
N1685      C1687   1.355       .  A
Mn1686    Cl1699   2.539       .  S
C1687      C1926   1.475       .  S
C1688      C1752   1.456       .  S
N1689      N1690   1.319       .  A
N1689      N1695   1.314       .  A
N1689     Mn1697   2.195       .  S
N1690      C1700   1.353       .  A
N1691      N1692   1.318       .  A
N1691      N1693   1.314       .  A
N1691     Mn1698   2.197       .  S
N1692      C1701   1.354       .  A
N1693      N1694   1.317       .  A
N1693     Mn1697   2.179       .  S
N1694      C1701   1.349       .  A
N1695      N1696   1.320       .  A
N1695     Mn1698   2.207       .  S
N1696      C1700   1.354       .  A
Mn1697    Cl1699   2.535       .  S
Mn1698    Cl1699   2.538       .  S
C1700      C1916   1.463       .  S
C1701      C1804   1.492       .  S
N1702      N1703   1.319       .  A
N1702      N1708   1.313       .  A
N1702     Mn1731   2.199       .  S
N1703      C1710   1.355       .  A
N1704      N1706   1.311       .  A
N1704      N1705   1.315       .  A
N1705      C1711   1.347       .  A
N1706      N1707   1.320       .  A
N1707      C1711   1.355       .  A
N1708      N1709   1.316       .  A
N1708     Mn1996   2.172   1_554  S
N1709      C1710   1.349       .  A
C1710      C1885   1.493       .  S
C1711      C1873   1.492       .  S
N1712      N1718   1.314       .  A
N1712      N1713   1.322       .  A
N1713      C1721   1.359       .  A
N1714      N1715   1.312       .  A
N1714      N1716   1.314       .  A
N1714     Mn1720   2.158       .  S
N1715      C1722   1.342       .  A
N1716      N1717   1.329       .  A
N1716     Mn1742   2.232       .  S
N1717      C1722   1.361       .  A
N1718      N1719   1.315       .  A
N1719      C1721   1.346       .  A
Mn1720     N1984   2.172       .  S
Mn1720    Cl1744   2.526       .  S
C1721      C1909   1.497       .  S
C1722      C1749   1.475       .  S
N1723      N1724   1.311       .  A
N1723      N1729   1.318       .  A
N1724      C1732   1.346       .  A
N1725      N1727   1.316       .  A
N1725      N1726   1.327       .  A
N1725     Mn2019   2.214   1_554  S
N1726      C1733   1.356       .  A
N1727      N1728   1.313       .  A
N1727     Mn1731   2.180       .  S
N1728      C1733   1.347       .  A
N1729      N1730   1.327       .  A
N1730      C1732   1.357       .  A
Mn1731    Cl2020   2.527   1_554  S
C1732      C1904   1.469       .  S
C1733      C1868   1.471       .  S
N1734      N1735   1.321       .  A
N1734      N1740   1.320       .  A
N1734     Mn1742   2.218       .  S
N1735      C1745   1.354       .  A
N1736      N1737   1.328       .  A
N1736      N1738   1.319       .  A
N1737      C1746   1.356       .  A
N1738      N1739   1.315       .  A
N1739      C1746   1.349       .  A
N1740      N1741   1.317       .  A
N1740     Mn1743   2.198       .  S
N1741      C1745   1.348       .  A
Mn1742    Cl1744   2.550       .  S
Mn1743     N2001   2.214       .  S
Mn1743    Cl1744   2.568       .  S
Cl1744    Mn2007   2.527       .  S
C1745      C1923   1.460       .  S
C1746      C1811   1.478       .  S
C1747      C1779   1.496       .  S
C1747      C1748   1.528       .  S
C1747      C1753   1.527       .  S
C1747      C1751   1.523       .  S
C1748      H1755   1.087       .  S
C1748      C1749   1.369       .  D
C1749      C1750   1.544       .  S
C1750      C1754   1.548       .  S
C1750      C1752   1.539       .  S
C1750      H1756   1.111       .  S
C1751      H1757   1.087       .  S
C1751      C1752   1.361       .  D
C1753      H1758   1.087       .  S
C1753      C1754   1.364       .  D
C1754      C1824   1.474       .  S
N1759      N1760   1.320       .  A
N1759      N1765   1.317       .  A
N1759     Mn2064   2.217       .  S
N1760      C1767   1.354       .  A
N1761      N1763   1.316       .  A
N1761      N1762   1.313       .  A
N1762      C1768   1.348       .  A
N1763      N1764   1.326       .  A
N1764      C1768   1.355       .  A
N1765      N1766   1.328       .  A
N1765     Mn1777   2.222       .  S
N1766      C1767   1.356       .  A
C1767      C1914   1.487       .  S
C1768      C1809   1.470       .  S
N1769      N1775   1.317       .  A
N1769      N1770   1.323       .  A
N1770      C1778   1.355       .  A
N1771      N1772   1.318       .  A
N1771      N1773   1.315       .  A
N1771     Mn1777   2.194       .  S
N1772      C1779   1.352       .  A
N1773      N1774   1.319       .  A
N1773     Mn2075   2.192       .  S
N1774      C1779   1.351       .  A
N1775      N1776   1.321       .  A
N1776      C1778   1.351       .  A
Mn1777    Cl2077   2.544       .  S
C1778      C1928   1.474       .  S
N1780      N1781   1.327       .  A
N1780      N1786   1.318       .  A
N1781      C1789   1.357       .  A
N1782      N1784   1.317       .  A
N1782      N1783   1.326       .  A
N1782     Mn1800   2.217       .  S
N1783      C1790   1.356       .  A
N1784      N1785   1.315       .  A
N1784     Mn1788   2.187       .  S
N1785      C1790   1.347       .  A
N1786      N1787   1.316       .  A
N1787      C1789   1.349       .  A
Mn1788     N2035   2.217   1_554  S
Mn1788    Cl1801   2.557       .  S
C1789      C1899   1.478       .  S
C1790      C1878   1.470       .  S
N1791      N1792   1.317       .  A
N1791      N1797   1.317       .  A
N1791     Mn1799   2.201       .  S
N1792      C1802   1.350       .  A
N1793      N1794   1.317       .  A
N1793      N1795   1.316       .  A
N1794      C1803   1.351       .  A
N1795      N1796   1.324       .  A
N1796      C1803   1.353       .  A
N1797      N1798   1.327       .  A
N1797     Mn1800   2.223       .  S
N1798      C1802   1.357       .  A
Mn1799     N2049   2.192   1_554  S
Mn1799    Cl1801   2.554       .  S
Mn1800    Cl1801   2.552       .  S
Cl1801    Mn2053   2.544   1_554  S
C1802      C1890   1.478       .  S
C1803      C1866   1.473       .  S
C1804      C1805   1.527       .  S
C1804      C1810   1.521       .  S
C1804      C1808   1.520       .  S
C1805      H1812   1.087       .  S
C1805      C1806   1.367       .  D
C1806      C1846   1.483       .  S
C1806      C1807   1.557       .  S
C1807      C1811   1.551       .  S
C1807      C1809   1.550       .  S
C1807      H1813   1.110       .  S
C1808      H1814   1.087       .  S
C1808      C1809   1.362       .  D
C1810      H1815   1.087       .  S
C1810      C1811   1.364       .  D
N1816      N1817   1.322       .  A
N1816      N1822   1.317       .  A
N1817      C1824   1.353       .  A
N1818      N1820   1.315       .  A
N1818      N1819   1.318       .  A
N1819      C1825   1.350       .  A
N1820      N1821   1.321       .  A
N1821      C1825   1.355       .  A
N1822      N1823   1.322       .  A
N1822     Mn1834   2.213       .  S
N1823      C1824   1.354       .  A
C1825      C1921   1.500       .  S
N1826      N1832   1.318       .  A
N1826      N1827   1.329       .  A
N1827      C1835   1.359       .  A
N1828      N1829   1.323       .  A
N1828      N1830   1.316       .  A
N1828     Mn1834   2.197       .  S
N1829      C1836   1.352       .  A
N1830      N1831   1.318       .  A
N1831      C1836   1.352       .  A
N1832      N1833   1.316       .  A
N1833      C1835   1.348       .  A
C1835      C1863   1.481       .  S
C1836      C1887   1.473       .  S
N1837      N1838   1.327       .  A
N1837      N1843   1.317       .  A
N1838      C1846   1.356       .  A
N1839      N1841   1.317       .  A
N1839      N1840   1.328       .  A
N1839     Mn1857   2.224       .  S
N1840      C1847   1.357       .  A
N1841      N1842   1.315       .  A
N1841     Mn1845   2.194       .  S
N1842      C1847   1.349       .  A
N1843      N1844   1.318       .  A
N1844      C1846   1.352       .  A
Mn1845    Cl1858   2.554       .  S
C1847      C1911   1.479       .  S
N1848      N1849   1.318       .  A
N1848      N1854   1.319       .  A
N1848     Mn1856   2.207       .  S
N1849      C1859   1.350       .  A
N1850      N1851   1.317       .  A
N1850      N1852   1.318       .  A
N1851      C1860   1.350       .  A
N1852      N1853   1.328       .  A
N1853      C1860   1.357       .  A
N1854      N1855   1.326       .  A
N1854     Mn1857   2.223       .  S
N1855      C1859   1.356       .  A
Mn1856    Cl1858   2.560       .  S
Mn1857    Cl1858   2.554       .  S
C1859      C1880   1.479       .  S
C1860      C1902   1.482       .  S
C1861      C1862   1.531       .  S
C1861      C1867   1.520       .  S
C1861      C1865   1.525       .  S
C1862      H1869   1.087       .  S
C1862      C1863   1.369       .  D
C1863      C1864   1.551       .  S
C1864      C1868   1.544       .  S
C1864      C1866   1.551       .  S
C1864      H1870   1.111       .  S
C1865      H1871   1.087       .  S
C1865      C1866   1.365       .  D
C1867      H1872   1.087       .  S
C1867      C1868   1.362       .  D
C1873      C1874   1.519       .  S
C1873      C1879   1.530       .  S
C1873      C1877   1.528       .  S
C1874      H1881   1.087       .  S
C1874      C1875   1.360       .  D
C1875      C1876   1.537       .  S
C1876      C1880   1.549       .  S
C1876      C1878   1.545       .  S
C1876      H1882   1.111       .  S
C1877      H1883   1.087       .  S
C1877      C1878   1.364       .  D
C1879      H1884   1.087       .  S
C1879      C1880   1.366       .  D
C1885      C1886   1.527       .  S
C1885      C1891   1.522       .  S
C1885      C1889   1.530       .  S
C1886      H1893   1.087       .  S
C1886      C1887   1.364       .  D
C1887      C1888   1.548       .  S
C1888      C1892   1.541       .  S
C1888      C1890   1.549       .  S
C1888      H1894   1.111       .  S
C1889      H1895   1.087       .  S
C1889      C1890   1.366       .  D
C1891      H1896   1.087       .  S
C1891      C1892   1.360       .  D
C1897      C1898   1.530       .  S
C1897      C1903   1.518       .  S
C1897      C1901   1.529       .  S
C1898      H1905   1.087       .  S
C1898      C1899   1.370       .  D
C1899      C1900   1.550       .  S
C1900      C1904   1.544       .  S
C1900      C1902   1.554       .  S
C1900      H1906   1.111       .  S
C1901      H1907   1.087       .  S
C1901      C1902   1.367       .  D
C1903      H1908   1.088       .  S
C1903      C1904   1.362       .  D
C1909      C1910   1.524       .  S
C1909      C1915   1.517       .  S
C1909      C1913   1.535       .  S
C1910      H1917   1.087       .  S
C1910      C1911   1.363       .  D
C1911      C1912   1.551       .  S
C1912      C1916   1.549       .  S
C1912      C1914   1.554       .  S
C1912      H1918   1.110       .  S
C1913      H1919   1.086       .  S
C1913      C1914   1.368       .  D
C1915      H1920   1.087       .  S
C1915      C1916   1.361       .  D
C1921      C1922   1.526       .  S
C1921      C1927   1.529       .  S
C1921      C1925   1.532       .  S
C1922      H1929   1.087       .  S
C1922      C1923   1.362       .  D
C1923      C1924   1.540       .  S
C1924      C1928   1.545       .  S
C1924      C1926   1.545       .  S
C1924      H1930   1.111       .  S
C1925      H1931   1.087       .  S
C1925      C1926   1.368       .  D
C1927      H1932   1.087       .  S
C1927      C1928   1.364       .  D
N1933      N1934   1.320       .  A
N1933      N1939   1.314       .  A
N1933     Mn1962   2.208       .  S
N1934      C1941   1.354       .  A
N1935      N1937   1.313       .  A
N1935      N1936   1.319       .  A
N1935     Mn1951   2.194       .  S
N1936      C1942   1.353       .  A
N1937      N1938   1.319       .  A
N1937     Mn1962   2.189       .  S
N1938      C1942   1.352       .  A
N1939      N1940   1.318       .  A
N1939     Mn1951   2.186       .  S
N1940      C1941   1.350       .  A
C1941      C2168   1.460       .  S
C1942      C2137   1.495       .  S
N1943      N1949   1.314       .  A
N1943      N1944   1.320       .  A
N1943     Mn1973   2.207       .  S
N1944      C1952   1.355       .  A
N1945      N1946   1.318       .  A
N1945      N1947   1.312       .  A
N1945     Mn1951   2.192       .  S
N1946      C1953   1.353       .  A
N1947      N1948   1.317       .  A
N1947     Mn1973   2.178       .  S
N1948      C1953   1.350       .  A
N1949      N1950   1.320       .  A
N1949     Mn1951   2.193       .  S
N1950      C1952   1.353       .  A
Mn1951    Cl1975   2.535       .  S
C1952      C2173   1.501       .  S
C1953      C2151   1.452       .  S
N1954      N1955   1.317       .  A
N1954      N1960   1.316       .  A
N1954     Mn1962   2.196       .  S
N1955      C1963   1.350       .  A
N1956      N1958   1.314       .  A
N1956      N1957   1.313       .  A
N1956     Mn1974   2.179       .  S
N1957      C1964   1.348       .  A
N1958      N1959   1.321       .  A
N1958     Mn1962   2.187       .  S
N1959      C1964   1.351       .  A
N1960      N1961   1.325       .  A
N1960     Mn1974   2.214       .  S
N1961      C1963   1.355       .  A
Mn1962    Cl1975   2.539       .  S
C1963      C2202   1.475       .  S
C1964      C2028   1.456       .  S
N1965      N1966   1.319       .  A
N1965      N1971   1.314       .  A
N1965     Mn1973   2.195       .  S
N1966      C1976   1.353       .  A
N1967      N1968   1.318       .  A
N1967      N1969   1.314       .  A
N1967     Mn1974   2.197       .  S
N1968      C1977   1.354       .  A
N1969      N1970   1.317       .  A
N1969     Mn1973   2.179       .  S
N1970      C1977   1.349       .  A
N1971      N1972   1.320       .  A
N1971     Mn1974   2.207       .  S
N1972      C1976   1.354       .  A
Mn1973    Cl1975   2.535       .  S
Mn1974    Cl1975   2.538       .  S
C1976      C2192   1.463       .  S
C1977      C2080   1.492       .  S
N1978      N1979   1.319       .  A
N1978      N1984   1.313       .  A
N1978     Mn2007   2.199       .  S
N1979      C1986   1.355       .  A
N1980      N1982   1.311       .  A
N1980      N1981   1.315       .  A
N1981      C1987   1.347       .  A
N1982      N1983   1.320       .  A
N1983      C1987   1.355       .  A
N1984      N1985   1.316       .  A
N1985      C1986   1.349       .  A
C1986      C2161   1.493       .  S
C1987      C2149   1.492       .  S
N1988      N1994   1.314       .  A
N1988      N1989   1.322       .  A
N1989      C1997   1.359       .  A
N1990      N1991   1.312       .  A
N1990      N1992   1.314       .  A
N1990     Mn1996   2.158       .  S
N1991      C1998   1.342       .  A
N1992      N1993   1.329       .  A
N1992     Mn2018   2.232       .  S
N1993      C1998   1.361       .  A
N1994      N1995   1.315       .  A
N1995      C1997   1.346       .  A
Mn1996    Cl2020   2.526       .  S
C1997      C2185   1.497       .  S
C1998      C2025   1.475       .  S
N1999      N2000   1.311       .  A
N1999      N2005   1.318       .  A
N2000      C2008   1.346       .  A
N2001      N2003   1.316       .  A
N2001      N2002   1.327       .  A
N2002      C2009   1.356       .  A
N2003      N2004   1.313       .  A
N2003     Mn2007   2.180       .  S
N2004      C2009   1.347       .  A
N2005      N2006   1.327       .  A
N2006      C2008   1.357       .  A
C2008      C2180   1.469       .  S
C2009      C2144   1.471       .  S
N2010      N2011   1.321       .  A
N2010      N2016   1.320       .  A
N2010     Mn2018   2.218       .  S
N2011      C2021   1.354       .  A
N2012      N2013   1.328       .  A
N2012      N2014   1.319       .  A
N2013      C2022   1.356       .  A
N2014      N2015   1.315       .  A
N2015      C2022   1.349       .  A
N2016      N2017   1.317       .  A
N2016     Mn2019   2.198       .  S
N2017      C2021   1.348       .  A
Mn2018    Cl2020   2.550       .  S
Mn2019    Cl2020   2.568       .  S
C2021      C2199   1.460       .  S
C2022      C2087   1.478       .  S
C2023      C2055   1.496       .  S
C2023      C2024   1.528       .  S
C2023      C2029   1.527       .  S
C2023      C2027   1.523       .  S
C2024      H2031   1.087       .  S
C2024      C2025   1.369       .  D
C2025      C2026   1.544       .  S
C2026      C2030   1.548       .  S
C2026      C2028   1.539       .  S
C2026      H2032   1.111       .  S
C2027      H2033   1.087       .  S
C2027      C2028   1.361       .  D
C2029      H2034   1.087       .  S
C2029      C2030   1.364       .  D
C2030      C2100   1.474       .  S
N2035      N2036   1.320       .  A
N2035      N2041   1.317       .  A
N2036      C2043   1.354       .  A
N2037      N2039   1.316       .  A
N2037      N2038   1.313       .  A
N2038      C2044   1.348       .  A
N2039      N2040   1.326       .  A
N2040      C2044   1.355       .  A
N2041      N2042   1.328       .  A
N2041     Mn2053   2.222       .  S
N2042      C2043   1.356       .  A
C2043      C2190   1.487       .  S
C2044      C2085   1.470       .  S
N2045      N2051   1.317       .  A
N2045      N2046   1.323       .  A
N2046      C2054   1.355       .  A
N2047      N2048   1.318       .  A
N2047      N2049   1.315       .  A
N2047     Mn2053   2.194       .  S
N2048      C2055   1.352       .  A
N2049      N2050   1.319       .  A
N2050      C2055   1.351       .  A
N2051      N2052   1.321       .  A
N2052      C2054   1.351       .  A
C2054      C2204   1.474       .  S
N2056      N2057   1.327       .  A
N2056      N2062   1.318       .  A
N2057      C2065   1.357       .  A
N2058      N2060   1.317       .  A
N2058      N2059   1.326       .  A
N2058     Mn2076   2.217       .  S
N2059      C2066   1.356       .  A
N2060      N2061   1.315       .  A
N2060     Mn2064   2.187       .  S
N2061      C2066   1.347       .  A
N2062      N2063   1.316       .  A
N2063      C2065   1.349       .  A
Mn2064    Cl2077   2.557       .  S
C2065      C2175   1.478       .  S
C2066      C2154   1.470       .  S
N2067      N2068   1.317       .  A
N2067      N2073   1.317       .  A
N2067     Mn2075   2.201       .  S
N2068      C2078   1.350       .  A
N2069      N2070   1.317       .  A
N2069      N2071   1.316       .  A
N2070      C2079   1.351       .  A
N2071      N2072   1.324       .  A
N2072      C2079   1.353       .  A
N2073      N2074   1.327       .  A
N2073     Mn2076   2.223       .  S
N2074      C2078   1.357       .  A
Mn2075    Cl2077   2.554       .  S
Mn2076    Cl2077   2.552       .  S
C2078      C2166   1.478       .  S
C2079      C2142   1.473       .  S
C2080      C2081   1.527       .  S
C2080      C2086   1.521       .  S
C2080      C2084   1.520       .  S
C2081      H2088   1.087       .  S
C2081      C2082   1.367       .  D
C2082      C2122   1.483       .  S
C2082      C2083   1.557       .  S
C2083      C2087   1.551       .  S
C2083      C2085   1.550       .  S
C2083      H2089   1.110       .  S
C2084      H2090   1.087       .  S
C2084      C2085   1.362       .  D
C2086      H2091   1.087       .  S
C2086      C2087   1.364       .  D
N2092      N2093   1.322       .  A
N2092      N2098   1.317       .  A
N2093      C2100   1.353       .  A
N2094      N2096   1.315       .  A
N2094      N2095   1.318       .  A
N2095      C2101   1.350       .  A
N2096      N2097   1.321       .  A
N2097      C2101   1.355       .  A
N2098      N2099   1.322       .  A
N2098     Mn2110   2.213       .  S
N2099      C2100   1.354       .  A
C2101      C2197   1.500       .  S
N2102      N2108   1.318       .  A
N2102      N2103   1.329       .  A
N2103      C2111   1.359       .  A
N2104      N2105   1.323       .  A
N2104      N2106   1.316       .  A
N2104     Mn2110   2.197       .  S
N2105      C2112   1.352       .  A
N2106      N2107   1.318       .  A
N2107      C2112   1.352       .  A
N2108      N2109   1.316       .  A
N2109      C2111   1.348       .  A
C2111      C2139   1.481       .  S
C2112      C2163   1.473       .  S
N2113      N2114   1.327       .  A
N2113      N2119   1.317       .  A
N2114      C2122   1.356       .  A
N2115      N2117   1.317       .  A
N2115      N2116   1.328       .  A
N2115     Mn2133   2.224       .  S
N2116      C2123   1.357       .  A
N2117      N2118   1.315       .  A
N2117     Mn2121   2.194       .  S
N2118      C2123   1.349       .  A
N2119      N2120   1.318       .  A
N2120      C2122   1.352       .  A
Mn2121    Cl2134   2.554       .  S
C2123      C2187   1.479       .  S
N2124      N2125   1.318       .  A
N2124      N2130   1.319       .  A
N2124     Mn2132   2.207       .  S
N2125      C2135   1.350       .  A
N2126      N2127   1.317       .  A
N2126      N2128   1.318       .  A
N2127      C2136   1.350       .  A
N2128      N2129   1.328       .  A
N2129      C2136   1.357       .  A
N2130      N2131   1.326       .  A
N2130     Mn2133   2.223       .  S
N2131      C2135   1.356       .  A
Mn2132    Cl2134   2.560       .  S
Mn2133    Cl2134   2.554       .  S
C2135      C2156   1.479       .  S
C2136      C2178   1.482       .  S
C2137      C2138   1.531       .  S
C2137      C2143   1.520       .  S
C2137      C2141   1.525       .  S
C2138      H2145   1.087       .  S
C2138      C2139   1.369       .  D
C2139      C2140   1.551       .  S
C2140      C2144   1.544       .  S
C2140      C2142   1.551       .  S
C2140      H2146   1.111       .  S
C2141      H2147   1.087       .  S
C2141      C2142   1.365       .  D
C2143      H2148   1.087       .  S
C2143      C2144   1.362       .  D
C2149      C2150   1.519       .  S
C2149      C2155   1.530       .  S
C2149      C2153   1.528       .  S
C2150      H2157   1.087       .  S
C2150      C2151   1.360       .  D
C2151      C2152   1.537       .  S
C2152      C2156   1.549       .  S
C2152      C2154   1.545       .  S
C2152      H2158   1.111       .  S
C2153      H2159   1.087       .  S
C2153      C2154   1.364       .  D
C2155      H2160   1.087       .  S
C2155      C2156   1.366       .  D
C2161      C2162   1.527       .  S
C2161      C2167   1.522       .  S
C2161      C2165   1.530       .  S
C2162      H2169   1.087       .  S
C2162      C2163   1.364       .  D
C2163      C2164   1.548       .  S
C2164      C2168   1.541       .  S
C2164      C2166   1.549       .  S
C2164      H2170   1.111       .  S
C2165      H2171   1.087       .  S
C2165      C2166   1.366       .  D
C2167      H2172   1.087       .  S
C2167      C2168   1.360       .  D
C2173      C2174   1.530       .  S
C2173      C2179   1.518       .  S
C2173      C2177   1.529       .  S
C2174      H2181   1.087       .  S
C2174      C2175   1.370       .  D
C2175      C2176   1.550       .  S
C2176      C2180   1.544       .  S
C2176      C2178   1.554       .  S
C2176      H2182   1.111       .  S
C2177      H2183   1.087       .  S
C2177      C2178   1.367       .  D
C2179      H2184   1.088       .  S
C2179      C2180   1.362       .  D
C2185      C2186   1.524       .  S
C2185      C2191   1.517       .  S
C2185      C2189   1.535       .  S
C2186      H2193   1.087       .  S
C2186      C2187   1.363       .  D
C2187      C2188   1.551       .  S
C2188      C2192   1.549       .  S
C2188      C2190   1.554       .  S
C2188      H2194   1.110       .  S
C2189      H2195   1.086       .  S
C2189      C2190   1.368       .  D
C2191      H2196   1.087       .  S
C2191      C2192   1.361       .  D
C2197      C2198   1.526       .  S
C2197      C2203   1.529       .  S
C2197      C2201   1.532       .  S
C2198      H2205   1.087       .  S
C2198      C2199   1.362       .  D
C2199      C2200   1.540       .  S
C2200      C2204   1.545       .  S
C2200      C2202   1.545       .  S
C2200      H2206   1.111       .  S
C2201      H2207   1.087       .  S
C2201      C2202   1.368       .  D
C2203      H2208   1.087       .  S
C2203      C2204   1.364       .  D
