geometry optimzed in LAMMPS
_audit_creation_date              2020-11-30 
_audit_creation_method            'lammps2cif' 
_symmetry_space_group_name_H-M    'P1' 
_symmetry_Int_Tables_number       1 
_symmetry_cell_setting            triclinic 
loop_ 
_symmetry_equiv_pos_as_xyz 
  x,y,z 
_cell_length_a                    39.70165676 
_cell_length_b                    39.76368328396308 
_cell_length_c                    39.81908245044338 
_cell_angle_alpha                 90.08051969975645 
_cell_angle_beta                  90.60860007208538 
_cell_angle_gamma                 89.57286857055159 
loop_ 
_atom_site_label 
_atom_site_type_symbol 
_atom_site_fract_x 
_atom_site_fract_y 
_atom_site_fract_z 
_atom_site_charge 
N1          N  0.98915320  0.24942853  0.30216739    -0.36700
N2          N  0.98737659  0.30036806  0.25067246    -0.57200
N3          N  0.99119729  0.24820536  0.19940367    -0.36700
N4          N  0.99517284  0.19722296  0.25098304    -0.57200
C5          C  0.99535854  0.27733514  0.32066456     0.26900
C6          C  0.99872539  0.22266591  0.32097899     0.26900
C7          C  0.99842961  0.27607013  0.18147854     0.26900
C8          C  0.00205494  0.22135489  0.18144218     0.26900
C9          C  0.98051095  0.31997197  0.27751296     0.35500
C10         C  0.98102011  0.31923418  0.22315264     0.35500
C11         C  0.98995375  0.17778541  0.27826838     0.35500
C12         C  0.99133831  0.17713753  0.22372996     0.35500
C13         C  0.00886012  0.26816864  0.35161682    -0.22000
C14         C  0.01088113  0.23365225  0.35185345    -0.22000
C15         C  0.01420609  0.26682965  0.15190318    -0.22000
C16         C  0.01631469  0.23228229  0.15180250    -0.22000
C17         C  0.96954373  0.35146214  0.26706497    -0.23000
C18         C  0.96976151  0.35097085  0.23253659    -0.23000
C19         C  0.98286234  0.14514967  0.26829955    -0.23000
C20         C  0.98370315  0.14475191  0.23376124    -0.23000
C21         C  0.98728503  0.31068933  0.31111837    -0.18900
C22         C  0.99425585  0.18854387  0.31199385    -0.18400
C23         C  0.99756616  0.18721016  0.19022695    -0.18400
C24         C  0.98908543  0.30938506  0.19007159    -0.18400
H25         H  0.01602993  0.28461074  0.37212528     0.14500
H26         H  0.01989520  0.21835663  0.37258463     0.14500
H27         H  0.02278784  0.28325576  0.13215443     0.14500
H28         H  0.02698529  0.21693241  0.13206590     0.14500
H29         H  0.96286971  0.37274898  0.28268079     0.12800
H30         H  0.96335888  0.37188219  0.21624136     0.12800
H31         H  0.97811839  0.12372143  0.28424741     0.12800
H32         H  0.97982043  0.12296436  0.21791469     0.12800
H33         H  0.97556798  0.24840402  0.27971761     0.26100
H34         H  0.97618427  0.24739469  0.22064257     0.26100
O35         O  0.49951160  0.09428054  0.05463349    -0.80200
O36         O  0.49692476  0.40157419  0.05533043    -0.81800
O37         O  0.44629198  0.99809205  0.09575747    -0.78800
O38         O  0.05562336  0.99805516  0.09634506    -0.77200
O39         O  0.09929125  0.49999087  0.05868068    -0.79000
O40         O  0.40555264  0.49904020  0.05334969    -0.79900
O41         O  0.50051345  0.44264734  0.09556788    -0.81200
O42         O  0.50085880  0.05369071  0.09537121    -0.81500
Eu43       Eu  0.50218886  0.49800487  0.06767494     2.39200
O44         O  0.03728545  0.46484241  0.03676637    -0.89000
O45         O  0.46717479  0.03328085  0.03379635    -0.92600
C46         C  0.49932161  0.08468498  0.08558864     1.02100
C47         C  0.49807992  0.41160090  0.08625392     1.01900
C48         C  0.41516397  0.99897645  0.08606729     1.01800
C49         C  0.08658379  0.99907024  0.08686534     0.99700
H50         H  0.45271233  0.45089577  0.04682466     0.29400
O51         O  0.46729318  0.46449587  0.03326702    -1.01400
H52         H  0.04904578  0.04707443  0.04710133     0.29500
O53         O  0.03501543  0.03264320  0.03346381    -1.03900
O54         O  0.50110796  0.40422430  0.44357698    -0.81200
O55         O  0.49899620  0.09254960  0.44146634    -0.80700
O56         O  0.40673000  0.44349606  0.49483511    -0.79100
O57         O  0.09728574  0.44274946  0.50455468    -0.82500
O58         O  0.09694777  0.05378516  0.50169654    -0.80300
O59         O  0.40356882  0.05442388  0.49606459    -0.79000
O60         O  0.45126294  0.49776787  0.40197894    -0.80500
O61         O  0.06020078  0.49777424  0.40765449    -0.82400
O62         O  0.40939031  0.49786167  0.44125397    -0.79200
O63         O  0.10002126  0.49884200  0.44958559    -0.81800
O64         O  0.44797500  0.40292230  0.49485776    -0.77600
O65         O  0.44393745  0.09519209  0.49422242    -0.77600
O66         O  0.05575132  0.09431674  0.50154881    -0.77300
O67         O  0.05642451  0.40231747  0.50248687    -0.80800
O68         O  0.50472631  0.44521176  0.40352801    -0.80200
O69         O  0.50135447  0.05144967  0.40121976    -0.78500
Eu70       Eu  0.50328271  0.43102757  0.49910259     2.39800
Eu71       Eu  0.49909055  0.06689278  0.49754873     2.39600
Eu72       Eu  0.43399759  0.49864088  0.49812728     2.38400
Eu73       Eu  0.06983534  0.49811151  0.50303044     2.39900
Eu74       Eu  0.50495783  0.50004766  0.43202289     2.39800
O75         O  0.03520649  0.03331520  0.46740684    -0.92900
O76         O  0.47006513  0.46589720  0.46472770    -0.91800
C77         C  0.50233745  0.41426095  0.41282753     1.02200
C78         C  0.50024026  0.08246529  0.41067970     1.01000
C79         C  0.41680956  0.41257849  0.49418674     1.00400
C80         C  0.08737967  0.41194765  0.50366754     1.02400
C81         C  0.08688903  0.08480493  0.50115786     1.01300
C82         C  0.41303963  0.08533423  0.49435360     1.00100
C83         C  0.42017527  0.49718176  0.41079206     1.00200
C84         C  0.09113560  0.49840712  0.41836049     1.02800
H85         H  0.45157323  0.04577801  0.44928217     0.30200
O86         O  0.46544979  0.03190035  0.46384196    -1.05100
H87         H  0.05057018  0.44929370  0.45439526     0.32200
O88         O  0.03641543  0.46345575  0.46809663    -1.07600
N89         N  0.25082986  0.99883351  0.19892633    -0.36700
N90         N  0.19830086  0.00184165  0.25066214    -0.57200
N91         N  0.24920230  0.00881485  0.30141657    -0.36700
N92         N  0.30193222  0.00265496  0.24950498    -0.57200
C93         C  0.22337072  0.98943558  0.18107837     0.26900
C94         C  0.27826825  0.99064990  0.18056639     0.26900
C95         C  0.22214089  0.00243753  0.32080538     0.26900
C96         C  0.27694339  0.00214063  0.32020274     0.26900
C97         C  0.17897314  0.00459568  0.22272455     0.35500
C98         C  0.17813889  0.00917042  0.27692027     0.35500
C99         C  0.32162083  0.00704239  0.22230957     0.35500
C100        C  0.32062550  0.01148336  0.27654932     0.35500
C101        C  0.23340824  0.97500038  0.15099615    -0.22000
C102        C  0.26810382  0.97561124  0.15075943    -0.22000
C103        C  0.23283070  0.99220265  0.35243021    -0.22000
C104        C  0.26742555  0.99185886  0.35202126    -0.22000
C105        C  0.14630556  0.01356806  0.23130956    -0.23000
C106        C  0.14577957  0.01635194  0.26569425    -0.23000
C107        C  0.35304744  0.01855743  0.23215406    -0.23000
C108        C  0.35243567  0.02133961  0.26655762    -0.23000
C109        C  0.18957555  0.99634513  0.18989906    -0.18400
C110        C  0.31191789  0.99898811  0.18898440    -0.18400
C111        C  0.31056241  0.00757202  0.31026081    -0.18400
C112        C  0.18806737  0.00643111  0.31096013    -0.18400
H113        H  0.21735778  0.96559724  0.13100274     0.14500
H114        H  0.28399947  0.96685908  0.13057694     0.14500
H115        H  0.21733906  0.98555902  0.37358533     0.14500
H116        H  0.28371420  0.98513658  0.37295676     0.14500
H117        H  0.12486630  0.01698365  0.21461378     0.12800
H118        H  0.12399312  0.02232539  0.28074962     0.12800
H119        H  0.37425878  0.02407950  0.21628368     0.12800
H120        H  0.37316998  0.02930913  0.28247108     0.12800
H121        H  0.25044427  0.01407896  0.22013530     0.26100
H122        H  0.24902107  0.02039318  0.27801982     0.26100
N123        N  0.25026617  0.19843862  0.49139612    -0.36700
N124        N  0.30264193  0.24983016  0.48763299    -0.57200
N125        N  0.25232755  0.30093676  0.49846188    -0.36700
N126        N  0.19966478  0.24918663  0.49929541    -0.57200
C127        C  0.27664523  0.18059768  0.47952302     0.26900
C128        C  0.22215372  0.18026531  0.48532029     0.26900
C129        C  0.27877182  0.32015708  0.48937453     0.26900
C130        C  0.22418423  0.32000581  0.49524445     0.26900
C131        C  0.32164268  0.22190510  0.49218963     0.35500
C132        C  0.32276912  0.27619373  0.49487795     0.35500
C133        C  0.18078209  0.22185881  0.50608347     0.35500
C134        C  0.18183848  0.27627254  0.50955911     0.35500
C135        C  0.26524475  0.15077628  0.46548103    -0.22000
C136        C  0.23073822  0.15069289  0.46888350    -0.22000
C137        C  0.26730180  0.35198471  0.48058404    -0.22000
C138        C  0.23283483  0.35190439  0.48427413    -0.22000
C139        C  0.35399027  0.23056886  0.50227813    -0.23000
C140        C  0.35473772  0.26503873  0.50379802    -0.23000
C141        C  0.15074877  0.23164599  0.52070151    -0.23000
C142        C  0.15136170  0.26616494  0.52279166    -0.23000
C143        C  0.31084815  0.18896012  0.48464887    -0.18400
C144        C  0.18961689  0.18851528  0.49707532    -0.18400
C145        C  0.19129990  0.31005659  0.50424394    -0.18400
C146        C  0.31308588  0.31020390  0.49114125    -0.18400
H147        H  0.28033724  0.13079914  0.45470078     0.14500
H148        H  0.21402757  0.13062659  0.46126145     0.14500
H149        H  0.28223764  0.37317838  0.47273893     0.14500
H150        H  0.21612510  0.37311279  0.47987466     0.14500
H151        H  0.37502279  0.21385396  0.50750602     0.12800
H152        H  0.37635586  0.28015876  0.51047627     0.12800
H153        H  0.13038470  0.21566548  0.52864771     0.12800
H154        H  0.13150260  0.28206246  0.53258772     0.12800
H155        H  0.25209910  0.21931344  0.50705533     0.26100
H156        H  0.25364968  0.27748571  0.50990013     0.26100
C157        C  0.38782372  0.36541096  0.96522934    -0.20400
C158        C  0.39050201  0.38636324  0.49347507    -0.06900
C159        C  0.36631660  0.38427496  0.51915430     0.13900
C160        C  0.34121823  0.35962303  0.51725628    -0.20400
C161        C  0.33983630  0.33656219  0.49055873    -0.06900
C162        C  0.36308754  0.34063625  0.96077941     0.13900
C163        C  0.36458242  0.31948326  0.92940057    -0.23800
H164        H  0.40771158  0.36757207  0.94691878     0.15200
H165        H  0.32281266  0.35789457  0.53708336     0.15200
C166        C  0.36797034  0.40695833  0.54947934    -0.23700
H167        H  0.36471208  0.33614391  0.90703283     0.05400
H168        H  0.34387777  0.29686185  0.43494269     0.08700
H169        H  0.38800619  0.30408499  0.92979908     0.08700
H170        H  0.39298220  0.40414774  0.56191241     0.08700
H171        H  0.33573231  0.40422182  0.06076028     0.08700
H172        H  0.36409658  0.43354496  0.54189630     0.05400
C173        C  0.38828287  0.13529151  0.46595291    -0.20400
C174        C  0.38643333  0.11131816  0.49169891    -0.06900
C175        C  0.35971438  0.11347670  0.01133549     0.13900
C176        C  0.33484405  0.13803541  0.00519215    -0.20400
C177        C  0.33626328  0.16139720  0.48474460    -0.06900
C178        C  0.36316510  0.15996373  0.46174952     0.13900
C179        C  0.36592849  0.18374080  0.43246455    -0.23800
H180        H  0.40907172  0.13430877  0.44854786     0.15200
H181        H  0.31384216  0.14054340  0.02222577     0.15200
C182        C  0.35618693  0.09069243  0.04124957    -0.23700
H183        H  0.36719086  0.16906533  0.40876571     0.05400
H184        H  0.38973153  0.19333440  0.92557728     0.08700
H185        H  0.34415430  0.20121948  0.43021154     0.08700
H186        H  0.37863861  0.09303009  0.05790588     0.08700
H187        H  0.35292648  0.06193766  0.53257505     0.08700
H188        H  0.33355257  0.09710643  0.05618501     0.05400
C189        C  0.14071492  0.33686110  0.47917892    -0.20400
C190        C  0.16450772  0.33620383  0.50544013    -0.06900
C191        C  0.16179791  0.35554094  0.02771774     0.13900
C192        C  0.13798230  0.38180816  0.02811079    -0.20400
C193        C  0.11357097  0.38568729  0.50377025    -0.06900
C194        C  0.11521884  0.36133294  0.47800278     0.13900
C195        C  0.09113126  0.36202569  0.44848427    -0.23800
H196        H  0.14241528  0.31827647  0.45930498     0.15200
H197        H  0.13638283  0.39810502  0.04991169     0.15200
C198        C  0.18414570  0.35080993  0.05818936    -0.23700
H199        H  0.09719370  0.34219306  0.42978185     0.05400
H200        H  0.09262315  0.38678679  0.43579218     0.08700
H201        H  0.06839727  0.36815645  0.94903195     0.08700
H202        H  0.20136351  0.38505320  0.56061653     0.08700
H203        H  0.20135704  0.32886339  0.05596653     0.08700
H204        H  0.16829530  0.34685883  0.08063855     0.05400
C205        C  0.14179207  0.10867494  0.52023173    -0.20400
C206        C  0.11286947  0.11152052  0.49979014    -0.06900
C207        C  0.11189357  0.13424774  0.96170481     0.13900
C208        C  0.13690736  0.15916555  0.96111293    -0.20400
C209        C  0.16351687  0.16152042  0.49858906    -0.06900
C210        C  0.16676780  0.13359673  0.52046380     0.13900
C211        C  0.19590672  0.13047806  0.54490872    -0.23800
H212        H  0.14465092  0.08707425  0.53651819     0.15200
H213        H  0.13572616  0.17858673  0.94204198     0.15200
C214        C  0.08536371  0.13493657  0.93429550    -0.23700
H215        H  0.19323488  0.10829646  0.56157281     0.05400
H216        H  0.19277156  0.15655199  0.04982400     0.08700
H217        H  0.21996851  0.12747193  0.53137453     0.08700
H218        H  0.07006502  0.15831810  0.93633223     0.08700
H219        H  0.07685570  0.12104004  0.43875167     0.08700
H220        H  0.09776188  0.13454417  0.90942457     0.05400
C221        C  0.36430814  0.02751374  0.38712287    -0.20400
C222        C  0.39476001  0.49615435  0.38400514    -0.06900
C223        C  0.39245679  0.46872132  0.36158250     0.13900
C224        C  0.36644443  0.46848498  0.33754130    -0.20400
C225        C  0.33719884  0.00656140  0.33655220    -0.06900
C226        C  0.33948024  0.03112269  0.36218935     0.13900
C227        C  0.31665384  0.06156976  0.36374637    -0.23800
H228        H  0.36613586  0.04619578  0.40693739     0.15200
H229        H  0.36402849  0.44740091  0.32041177     0.15200
C230        C  0.41670369  0.43938441  0.36362394    -0.23700
H231        H  0.33211052  0.08473096  0.36367392     0.05400
H232        H  0.30189384  0.06091309  0.38726822     0.08700
H233        H  0.29881495  0.06325448  0.34222699     0.08700
H234        H  0.41592513  0.42797500  0.38904492     0.08700
H235        H  0.44268246  0.44799603  0.35855581     0.08700
H236        H  0.41039279  0.41954520  0.34496983     0.05400
C237        C  0.11935641  0.97404118  0.36862800    -0.20400
C238        C  0.11837874  0.49694107  0.39298428    -0.06900
C239        C  0.14591299  0.51940178  0.39283992     0.13900
C240        C  0.17020189  0.51668290  0.36733273    -0.20400
C241        C  0.16171167  0.00472226  0.33746143    -0.06900
C242        C  0.14313274  0.97504282  0.34273513     0.13900
C243        C  0.14924130  0.94406497  0.32176372    -0.23800
H244        H  0.10486781  0.95148396  0.37246052     0.15200
H245        H  0.19053973  0.53467806  0.36633201     0.15200
C246        C  0.14941577  0.54665390  0.41893935    -0.23700
H247        H  0.13353238  0.92267182  0.33001586     0.05400
H248        H  0.16281212  0.43396492  0.30593071     0.08700
H249        H  0.14307077  0.94930237  0.29503785     0.08700
H250        H  0.15268947  0.53533149  0.44423000     0.08700
H251        H  0.14150568  0.05045898  0.43628865     0.08700
H252        H  0.17160763  0.56277769  0.41427748     0.05400
C253        C  0.11632339  0.46952341  0.13714039    -0.20400
C254        C  0.11284852  0.99901945  0.11325523    -0.06900
C255        C  0.13578251  0.02571379  0.11690169     0.13900
C256        C  0.16119642  0.02360620  0.14152440    -0.20400
C257        C  0.16367007  0.99570601  0.16291653    -0.06900
C258        C  0.14092500  0.46555973  0.16217816     0.13900
C259        C  0.14081769  0.43367284  0.18261923    -0.23800
H260        H  0.09810941  0.45011510  0.13334207     0.15200
H261        H  0.17883907  0.04408774  0.14462472     0.15200
C262        C  0.13282253  0.05674141  0.09551902    -0.23700
H263        H  0.14268562  0.41162959  0.16556121     0.05400
H264        H  0.11693413  0.43213154  0.19675911     0.08700
H265        H  0.16205952  0.43201738  0.20082444     0.08700
H266        H  0.10759454  0.06849566  0.09877764     0.08700
H267        H  0.13619167  0.04968078  0.06886206     0.08700
H268        H  0.15222057  0.07565136  0.10224507     0.05400
C269        C  0.36199666  0.51835566  0.10978899    -0.20400
C270        C  0.38896399  0.99824453  0.11243735    -0.06900
C271        C  0.38873423  0.97328162  0.13776084     0.13900
C272        C  0.36345301  0.97409286  0.16234909    -0.20400
C273        C  0.33798381  0.99885393  0.16193469    -0.06900
C274        C  0.33703068  0.51847946  0.13462180     0.13900
C275        C  0.31009267  0.54539933  0.13370021    -0.23800
H276        H  0.36115291  0.53713686  0.09020635     0.15200
H277        H  0.36334483  0.95515402  0.18189434     0.15200
C278        C  0.41422599  0.94495353  0.13809003    -0.23700
H279        H  0.31375907  0.56319404  0.11259555     0.05400
H280        H  0.31042854  0.06467139  0.15784091     0.08700
H281        H  0.28489327  0.53400284  0.13035377     0.08700
H282        H  0.43988491  0.95494685  0.14263257     0.08700
H283        H  0.41548835  0.42887981  0.11171952     0.08700
H284        H  0.40898824  0.92637577  0.15813448     0.05400
C285        C  0.47380420  0.13353923  0.38713133    -0.20400
C286        C  0.49892776  0.10873364  0.38459481    -0.06900
C287        C  0.02627659  0.11487369  0.36414950     0.13900
C288        C  0.02315312  0.13988224  0.33944268    -0.20400
C289        C  0.49443014  0.16128376  0.33728545    -0.06900
C290        C  0.47086357  0.15948473  0.36357281     0.13900
C291        C  0.44186761  0.18388104  0.36721255    -0.23800
H292        H  0.45579014  0.13224845  0.40735104     0.15200
H293        H  0.04207919  0.14158186  0.32008885     0.15200
C294        C  0.05659353  0.09195316  0.36271762    -0.23700
H295        H  0.41779086  0.16985953  0.36648455     0.05400
H296        H  0.44064439  0.20302568  0.34707012     0.08700
H297        H  0.44405016  0.19711632  0.39170519     0.08700
H298        H  0.05722672  0.07317074  0.38313686     0.08700
H299        H  0.07988899  0.10715882  0.36473958     0.08700
H300        H  0.05666474  0.07823075  0.33841966     0.05400
C301        C  0.01625748  0.35946450  0.33728582    -0.20400
C302        C  0.49518367  0.33652332  0.33790183    -0.06900
C303        C  0.47098856  0.33918743  0.36358435     0.13900
C304        C  0.47413137  0.36470968  0.38780843    -0.20400
C305        C  0.50027347  0.38820455  0.38641024    -0.06900
C306        C  0.01999321  0.38405067  0.36229950     0.13900
C307        C  0.05005680  0.40670890  0.36141248    -0.23800
H308        H  0.03491383  0.35713771  0.31771790     0.15200
H309        H  0.45574222  0.36674562  0.40763436     0.15200
C310        C  0.44137443  0.31577921  0.36496090    -0.23700
H311        H  0.06737120  0.40001774  0.34067575     0.05400
H312        H  0.06432538  0.40463798  0.38541871     0.08700
H313        H  0.04164286  0.43309347  0.35752385     0.08700
H314        H  0.45013641  0.28951857  0.36883489     0.08700
H315        H  0.42672425  0.31737804  0.34110510     0.08700
H316        H  0.42426013  0.32234374  0.38587571     0.05400
C317        C  0.47031596  0.36177887  0.11182767    -0.20400
C318        C  0.49625185  0.38564824  0.11305532    -0.06900
C319        C  0.02006118  0.38547838  0.14307807     0.13900
C320        C  0.01647378  0.36008917  0.16706825    -0.20400
C321        C  0.49151052  0.33537790  0.16319259    -0.06900
C322        C  0.46736833  0.33697886  0.13684595     0.13900
C323        C  0.43795965  0.31322941  0.13568649    -0.23800
H324        H  0.45189373  0.36298836  0.09156580     0.15200
H325        H  0.03362908  0.35886721  0.18841565     0.15200
C326        C  0.04847633  0.40975952  0.14695294    -0.23700
H327        H  0.42067220  0.31890443  0.11429541     0.05400
H328        H  0.42341169  0.31546418  0.15926160     0.08700
H329        H  0.44692834  0.28692653  0.13278427     0.08700
H330        H  0.03859662  0.43579304  0.14960721     0.08700
H331        H  0.06447124  0.40759601  0.12437012     0.08700
H332        H  0.06435820  0.40420018  0.16942667     0.05400
C333        C  0.47122067  0.16133699  0.13609803    -0.20400
C334        C  0.49333080  0.15988808  0.16384133    -0.06900
C335        C  0.02459848  0.13572548  0.16219394     0.13900
C336        C  0.02365323  0.11117523  0.13671836    -0.20400
C337        C  0.49697060  0.11113687  0.11186009    -0.06900
C338        C  0.47315589  0.13779720  0.10978834     0.13900
C339        C  0.44921441  0.14125445  0.08029967    -0.23800
H340        H  0.45260759  0.18139776  0.13484666     0.15200
H341        H  0.04242232  0.09121104  0.13681313     0.15200
C342        C  0.05345624  0.13432363  0.18706340    -0.23700
H343        H  0.43104717  0.16231005  0.08382097     0.05400
H344        H  0.43461647  0.11775564  0.07703844     0.08700
H345        H  0.46347146  0.14648055  0.05708683     0.08700
H346        H  0.05237525  0.11054541  0.20157020     0.08700
H347        H  0.05345910  0.15568853  0.20493837     0.08700
H348        H  0.07764498  0.13507328  0.17333237     0.05400
N349        N  0.98493235  0.24759597  0.80199722    -0.36700
N350        N  0.98656271  0.30024343  0.75191817    -0.57200
N351        N  0.98388717  0.24962767  0.69911037    -0.36700
N352        N  0.98384663  0.19718196  0.74941782    -0.57200
C353        C  0.99523491  0.27418525  0.82065746     0.26900
C354        C  0.99348264  0.21942956  0.81925798     0.26900
C355        C  0.99275043  0.27730275  0.68165815     0.26900
C356        C  0.99256928  0.22247476  0.68042061     0.26900
C357        C  0.98216168  0.31937350  0.77967056     0.35500
C358        C  0.98069786  0.32045278  0.72518054     0.35500
C359        C  0.97817212  0.17712990  0.77606203     0.35500
C360        C  0.97847485  0.17826593  0.72173073     0.35500
C361        C  0.01054010  0.26277263  0.84999142    -0.22000
C362        C  0.00938066  0.22821573  0.84913512    -0.22000
C363        C  0.00704193  0.26764388  0.65146591    -0.22000
C364        C  0.00692821  0.23302631  0.65069199    -0.22000
C365        C  0.97330307  0.35190912  0.77054133    -0.23000
C366        C  0.97229395  0.35257857  0.73599279    -0.23000
C367        C  0.96869591  0.14537096  0.76527310    -0.23000
C368        C  0.96891918  0.14608240  0.73076676    -0.23000
C369        C  0.98919289  0.30843363  0.81284806    -0.18900
C370        C  0.98551366  0.18611666  0.80964930    -0.18400
C371        C  0.98638517  0.18852768  0.68886094    -0.18400
C372        C  0.98627113  0.31100350  0.69138425    -0.18400
H373        H  0.02100651  0.27781990  0.87016522     0.14500
H374        H  0.01881501  0.21144672  0.86850505     0.14500
H375        H  0.01643621  0.28387026  0.63193379     0.14500
H376        H  0.01623532  0.21740768  0.63047856     0.14500
H377        H  0.96875454  0.37310120  0.78701233     0.12800
H378        H  0.96685991  0.37442194  0.72061913     0.12800
H379        H  0.96343373  0.12363159  0.78062319     0.12800
H380        H  0.96397020  0.12499469  0.71426044     0.12800
H381        H  0.96954344  0.24867169  0.78068704     0.26100
H382        H  0.96944146  0.24945514  0.72076298     0.26100
O383        O  0.49862056  0.09503265  0.55259754    -0.80200
O384        O  0.50043539  0.40162113  0.55361333    -0.81800
O385        O  0.44342667  0.99748379  0.59398611    -0.78800
O386        O  0.05644679  0.99831042  0.59689054    -0.77200
O387        O  0.09720091  0.49802837  0.55860306    -0.79000
O388        O  0.40543811  0.49389959  0.55298606    -0.79900
O389        O  0.50100879  0.44190685  0.59483661    -0.81200
O390        O  0.49733345  0.05450118  0.59352400    -0.81500
Eu391      Eu  0.50089096  0.49832616  0.56841713     2.39200
O392        O  0.03553052  0.46353412  0.53599279    -0.89000
O393        O  0.46454799  0.03367614  0.53207674    -0.92600
C394        C  0.49786613  0.08530087  0.58349303     1.02100
C395        C  0.50011879  0.41099368  0.58469724     1.01900
C396        C  0.41237169  0.99754965  0.58410320     1.01800
C397        C  0.08725385  0.99819518  0.58702992     0.99700
H398        H  0.45405560  0.44970828  0.54553049     0.29400
O399        O  0.46811634  0.46440487  0.53254633    -1.01400
H400        H  0.04879995  0.04680415  0.54965839     0.29500
O401        O  0.03485621  0.03275215  0.53554728    -1.03900
O402        O  0.49992519  0.40109245  0.94403975    -0.81200
O403        O  0.50227094  0.09377042  0.94396378    -0.80700
O404        O  0.40457867  0.44517276  0.99667427    -0.79100
O405        O  0.09985933  0.44407384  0.00377797    -0.82500
O406        O  0.09677258  0.05248429  0.99471095    -0.80300
O407        O  0.40481708  0.05472755  0.99693841    -0.79000
O408        O  0.44870497  0.49493483  0.90317248    -0.80500
O409        O  0.05995604  0.49837747  0.90714261    -0.82400
O410        O  0.40755610  0.49778849  0.94311844    -0.79200
O411        O  0.10026025  0.50104529  0.94861570    -0.81800
O412        O  0.44425680  0.40317129  0.99534072    -0.77600
O413        O  0.44570782  0.09494196  0.99494694    -0.77600
O414        O  0.05586809  0.09331248  0.99199723    -0.77300
O415        O  0.05879986  0.40375538  0.00287416    -0.80800
O416        O  0.50349524  0.44158142  0.90346361    -0.80200
O417        O  0.50280312  0.05269640  0.90357255    -0.78500
Eu418      Eu  0.50035512  0.42900798  0.99961212     2.39800
Eu419      Eu  0.50156423  0.06659253  0.99946223     2.39600
Eu420      Eu  0.43428501  0.49947428  0.99860535     2.38400
Eu421      Eu  0.07160160  0.49926211  0.00325896     2.39900
Eu422      Eu  0.50394634  0.49687630  0.93107923     2.39800
O423        O  0.03529537  0.03109469  0.96519166    -0.92900
O424        O  0.46818061  0.46462879  0.96494602    -0.91800
C425        C  0.50165689  0.41068319  0.91308836     1.02200
C426        C  0.50297921  0.08368403  0.91313388     1.01000
C427        C  0.41347416  0.41389724  0.99508604     1.00400
C428        C  0.08980904  0.41328608  0.00302629     1.02400
C429        C  0.08688946  0.08331788  0.99118292     1.01300
C430        C  0.41456961  0.08545350  0.99466950     1.00100
C431        C  0.41772699  0.49553358  0.91257919     1.00200
C432        C  0.09088966  0.50017674  0.91747052     1.02800
H433        H  0.45349745  0.04678763  0.95081099     0.30200
O434        O  0.46723893  0.03267198  0.96523674    -1.05100
H435        H  0.05207089  0.45011528  0.95520889     0.32200
O436        O  0.03785328  0.46420492  0.96896151    -1.07600
N437        N  0.25025269  0.99711852  0.69822290    -0.36700
N438        N  0.19901909  0.99436782  0.75022272    -0.57200
N439        N  0.25109508  0.00001836  0.80055418    -0.36700
N440        N  0.30244556  0.00030937  0.74848911    -0.57200
C441        C  0.22302188  0.98688744  0.68054052     0.26900
C442        C  0.27766007  0.98937623  0.67978240     0.26900
C443        C  0.22456483  0.99195878  0.82003107     0.26900
C444        C  0.27938349  0.99480517  0.81907424     0.26900
C445        C  0.17900441  0.99855398  0.72294942     0.35500
C446        C  0.17929292  0.99935034  0.77723525     0.35500
C447        C  0.32107558  0.00665675  0.72103479     0.35500
C448        C  0.32171211  0.00832262  0.77539894     0.35500
C449        C  0.23315456  0.97247500  0.65051088    -0.22000
C450        C  0.26775374  0.97386968  0.65013335    -0.22000
C451        C  0.23612235  0.98174822  0.85137151    -0.22000
C452        C  0.27072453  0.98342079  0.85074809    -0.22000
C453        C  0.14626262  0.00569102  0.73262254    -0.23000
C454        C  0.14646712  0.00624230  0.76709888    -0.23000
C455        C  0.35236731  0.01884930  0.73048152    -0.23000
C456        C  0.35281997  0.01979986  0.76502655    -0.23000
C457        C  0.18932351  0.99300706  0.68963384    -0.18400
C458        C  0.31099974  0.99867692  0.68789328    -0.18400
C459        C  0.31254469  0.00262395  0.80908650    -0.18400
C460        C  0.19018440  0.99550160  0.81086463    -0.18400
H461        H  0.21729326  0.96237989  0.63072672     0.14500
H462        H  0.28375217  0.96512061  0.63003638     0.14500
H463        H  0.22115746  0.97419840  0.87259625     0.14500
H464        H  0.28756182  0.97757236  0.87151990     0.14500
H465        H  0.12438269  0.00939017  0.71656595     0.12800
H466        H  0.12484261  0.01061008  0.78288943     0.12800
H467        H  0.37289677  0.02567856  0.71423273     0.12800
H468        H  0.37379474  0.02754581  0.78072897     0.12800
H469        H  0.24972830  0.01255271  0.71933631     0.26100
H470        H  0.24991015  0.01222458  0.77752250     0.26100
N471        N  0.25032673  0.19695728  0.97980341    -0.36700
N472        N  0.30245904  0.24888196  0.97768480    -0.57200
N473        N  0.25097914  0.29910217  0.98974506    -0.36700
N474        N  0.19865059  0.24728064  0.98811924    -0.57200
C475        C  0.27731177  0.17893085  0.96947605     0.26900
C476        C  0.22250712  0.17842717  0.97320533     0.26900
C477        C  0.27720794  0.31890659  0.98132163     0.26900
C478        C  0.22268142  0.31806463  0.98702539     0.26900
C479        C  0.32203776  0.22112080  0.98138704     0.35500
C480        C  0.32225228  0.27558396  0.98500940     0.35500
C481        C  0.17959699  0.21961416  0.99262788     0.35500
C482        C  0.18010622  0.27382158  0.99859269     0.35500
C483        C  0.26659111  0.14863110  0.95595510    -0.22000
C484        C  0.23196321  0.14841090  0.95807748    -0.22000
C485        C  0.26539593  0.35077359  0.97313548    -0.22000
C486        C  0.23100765  0.35028161  0.97681985    -0.22000
C487        C  0.35450303  0.23032043  0.99055311    -0.23000
C488        C  0.35465397  0.26479157  0.99270035    -0.23000
C489        C  0.14863962  0.22866493  0.00579945    -0.23000
C490        C  0.14894476  0.26305591  0.00952679    -0.23000
C491        C  0.31140304  0.18768716  0.97522415    -0.18400
C492        C  0.18930997  0.18658722  0.98337071    -0.18400
C493        C  0.18985001  0.30780997  0.99571980    -0.18400
C494        C  0.31167377  0.30966039  0.98338025    -0.18400
H495        H  0.28219162  0.12849754  0.94621772     0.14500
H496        H  0.21568686  0.12801107  0.95039895     0.14500
H497        H  0.28008040  0.37230383  0.96573502     0.14500
H498        H  0.21410016  0.37141256  0.97282625     0.14500
H499        H  0.37593836  0.21396222  0.99521096     0.12800
H500        H  0.37612777  0.28011949  0.99934732     0.12800
H501        H  0.12791936  0.21228049  0.01183054     0.12800
H502        H  0.12844826  0.27842970  0.01884114     0.12800
H503        H  0.25146398  0.21831993  0.99480304     0.26100
H504        H  0.25258207  0.27542440  0.00068555     0.26100
C505        C  0.38963115  0.36302408  0.46703445    -0.20400
C506        C  0.38659479  0.38829025  0.99207081    -0.06900
C507        C  0.36007780  0.38602857  0.01535903     0.13900
C508        C  0.33634617  0.36006369  0.01196709    -0.20400
C509        C  0.33752090  0.33706737  0.98507638    -0.06900
C510        C  0.36459456  0.33819813  0.46513532     0.13900
C511        C  0.36534311  0.31446692  0.43557788    -0.23800
H512        H  0.40832853  0.36446018  0.44746447     0.15200
H513        H  0.31662483  0.35766884  0.03041077     0.15200
C514        C  0.35721971  0.41036521  0.04427615    -0.23700
H515        H  0.36440100  0.32913270  0.41187951     0.05400
H516        H  0.34280975  0.30244021  0.92650902     0.08700
H517        H  0.38906994  0.29949447  0.43637552     0.08700
H518        H  0.38064391  0.40959395  0.05973915     0.08700
H519        H  0.34838917  0.40067730  0.56812102     0.08700
H520        H  0.35310397  0.43626168  0.03463407     0.05400
C521        C  0.38969016  0.13295827  0.96221175    -0.20400
C522        C  0.38790998  0.11134102  0.98998150    -0.06900
C523        C  0.35903390  0.11229008  0.51403303     0.13900
C524        C  0.33444138  0.13743789  0.51040072    -0.20400
C525        C  0.33689106  0.16000400  0.97777376    -0.06900
C526        C  0.36415031  0.15671524  0.95537899     0.13900
C527        C  0.36680568  0.17758253  0.92400088    -0.23800
H528        H  0.41069818  0.13066185  0.94518642     0.15200
H529        H  0.31387907  0.13885408  0.52807313     0.15200
C530        C  0.35627168  0.08776434  0.54256432    -0.23700
H531        H  0.36860627  0.16071002  0.90183102     0.05400
H532        H  0.38922713  0.19882135  0.43518693     0.08700
H533        H  0.34471897  0.19435025  0.91993225     0.08700
H534        H  0.37940039  0.08880469  0.55842987     0.08700
H535        H  0.35358951  0.06422469  0.03283516     0.08700
H536        H  0.33435487  0.09349658  0.55877352     0.05400
C537        C  0.14149530  0.33957714  0.97205755    -0.20400
C538        C  0.16361059  0.33432625  0.99920519    -0.06900
C539        C  0.16292238  0.36065406  0.53122347     0.13900
C540        C  0.13762046  0.38539302  0.52981491    -0.20400
C541        C  0.11559508  0.38667022  0.00107683    -0.06900
C542        C  0.11751705  0.36554207  0.97263476     0.13900
C543        C  0.09523254  0.37129239  0.94231015    -0.23800
H544        H  0.14344868  0.32356293  0.95009357     0.15200
H545        H  0.13629205  0.40424354  0.54949085     0.15200
C546        C  0.18711442  0.36113008  0.56064008    -0.23700
H547        H  0.10096545  0.35333002  0.92172327     0.05400
H548        H  0.09919354  0.39717763  0.93281138     0.08700
H549        H  0.06498932  0.35785007  0.45702015     0.08700
H550        H  0.19962062  0.37364438  0.06214990     0.08700
H551        H  0.20544723  0.33998983  0.56025880     0.08700
H552        H  0.17280406  0.35941349  0.58438268     0.05400
C553        C  0.14058479  0.10870890  0.00955945    -0.20400
C554        C  0.11332120  0.10908988  0.98691894    -0.06900
C555        C  0.10944181  0.13968496  0.47818841     0.13900
C556        C  0.13493685  0.16403883  0.47765505    -0.20400
C557        C  0.16365620  0.15920731  0.98453150    -0.06900
C558        C  0.16551448  0.13349042  0.00896767     0.13900
C559        C  0.19306236  0.13270251  0.03530656    -0.23800
H560        H  0.14191415  0.08934174  0.02850601     0.15200
H561        H  0.13255650  0.18536035  0.46084409     0.15200
C562        C  0.07955379  0.14376394  0.45476815    -0.23700
H563        H  0.18982225  0.11160766  0.05322549     0.05400
H564        H  0.19712270  0.15327403  0.56099133     0.08700
H565        H  0.21797376  0.12940648  0.02339853     0.08700
H566        H  0.05623270  0.14778018  0.46939072     0.08700
H567        H  0.06827260  0.11310124  0.93496499     0.08700
H568        H  0.08232911  0.16578914  0.43793431     0.05400
C569        C  0.36676659  0.02821283  0.88401249    -0.20400
C570        C  0.39172689  0.49392955  0.88636893    -0.06900
C571        C  0.38826710  0.46551693  0.86538964     0.13900
C572        C  0.36310562  0.46565023  0.84043269    -0.20400
C573        C  0.33936377  0.00308804  0.83535083    -0.06900
C574        C  0.34228639  0.02998568  0.85836270     0.13900
C575        C  0.31990976  0.06064437  0.85549026    -0.23800
H576        H  0.36925131  0.04877143  0.90176765     0.15200
H577        H  0.36008316  0.44397423  0.82416477     0.15200
C578        C  0.41016864  0.43469346  0.87019293    -0.23700
H579        H  0.32603223  0.07964039  0.87505897     0.05400
H580        H  0.29314846  0.05348282  0.85843738     0.08700
H581        H  0.32318746  0.07246350  0.83049773     0.08700
H582        H  0.40724996  0.42486947  0.89609912     0.08700
H583        H  0.43697604  0.44104235  0.86609081     0.08700
H584        H  0.40326982  0.41434061  0.85232365     0.05400
C585        C  0.11947303  0.96856446  0.86892337    -0.20400
C586        C  0.11752674  0.50037527  0.89157762    -0.06900
C587        C  0.14113649  0.52670675  0.88887636     0.13900
C588        C  0.16503238  0.52575326  0.86294619    -0.20400
C589        C  0.16436082  0.99529434  0.83783013    -0.06900
C590        C  0.14373868  0.96711811  0.84350750     0.13900
C591        C  0.14745597  0.93548540  0.82295377    -0.23800
H592        H  0.10411032  0.94684428  0.87375573     0.15200
H593        H  0.18291297  0.54604143  0.86047738     0.15200
C594        C  0.14093549  0.55597956  0.91295379    -0.23700
H595        H  0.12995716  0.91558256  0.83131177     0.05400
H596        H  0.17056587  0.42988663  0.82287428     0.08700
H597        H  0.14181822  0.94082862  0.79613508     0.08700
H598        H  0.14660678  0.54703646  0.93879730     0.08700
H599        H  0.11013710  0.05827328  0.91928495     0.08700
H600        H  0.16007331  0.57502893  0.90633449     0.05400
C601        C  0.12194070  0.46625763  0.63085452    -0.20400
C602        C  0.11342907  0.99744916  0.61292577    -0.06900
C603        C  0.12889673  0.02712353  0.62441406     0.13900
C604        C  0.15406015  0.02481926  0.64920443    -0.20400
C605        C  0.16344700  0.99354224  0.66278692    -0.06900
C606        C  0.14659087  0.46494492  0.65629192     0.13900
C607        C  0.15489342  0.43186980  0.67294970    -0.23800
H608        H  0.10985765  0.44338160  0.62253236     0.15200
H609        H  0.16618239  0.04743377  0.65838677     0.15200
C610        C  0.11860150  0.06098811  0.61069988    -0.23700
H611        H  0.13922154  0.41114086  0.66271050     0.05400
H612        H  0.15021174  0.43380439  0.70033015     0.08700
H613        H  0.18173697  0.42522305  0.66892684     0.08700
H614        H  0.09163339  0.06583815  0.61609788     0.08700
H615        H  0.12218542  0.06132001  0.58315658     0.08700
H616        H  0.13369789  0.08161788  0.62196787     0.05400
C617        C  0.36095499  0.51148925  0.60836635    -0.20400
C618        C  0.38617587  0.99653345  0.61029320    -0.06900
C619        C  0.38648086  0.97215249  0.63616130     0.13900
C620        C  0.36159584  0.97347031  0.66100447    -0.20400
C621        C  0.33657582  0.99861180  0.66075038    -0.06900
C622        C  0.33675040  0.51305734  0.63372447     0.13900
C623        C  0.31133870  0.54136484  0.63176519    -0.23800
H624        H  0.35983670  0.52968497  0.58820160     0.15200
H625        H  0.36160487  0.95480793  0.68082368     0.15200
C626        C  0.41230057  0.94415776  0.63714983    -0.23700
H627        H  0.32473125  0.56570379  0.62985579     0.05400
H628        H  0.29254638  0.05096877  0.65358838     0.08700
H629        H  0.29521251  0.53811535  0.60905235     0.08700
H630        H  0.43785399  0.95459976  0.64116668     0.08700
H631        H  0.41674141  0.42324814  0.61450872     0.08700
H632        H  0.40748134  0.92616441  0.65783683     0.05400
C633        C  0.47720009  0.13366237  0.88617586    -0.20400
C634        C  0.50321109  0.10963638  0.88674380    -0.06900
C635        C  0.01715898  0.10925676  0.85743206     0.13900
C636        C  0.01369013  0.13500195  0.83345672    -0.20400
C637        C  0.50106050  0.15978491  0.83673016    -0.06900
C638        C  0.47532911  0.15822773  0.86094713     0.13900
C639        C  0.44526430  0.18154828  0.85946968    -0.23800
H640        H  0.45768503  0.13248934  0.90494779     0.15200
H641        H  0.03139852  0.13653598  0.81299272     0.15200
C642        C  0.04585552  0.08447116  0.85442861    -0.23700
H643        H  0.42702033  0.17585143  0.87953480     0.05400
H644        H  0.43210648  0.17872510  0.83489328     0.08700
H645        H  0.45328840  0.20801418  0.86268337     0.08700
H646        H  0.03592278  0.05878080  0.85026884     0.08700
H647        H  0.06137869  0.08479010  0.87774538     0.08700
H648        H  0.06246200  0.09057029  0.83304256     0.05400
C649        C  0.01926274  0.35718013  0.83870556    -0.20400
C650        C  0.49726348  0.33394541  0.83646196    -0.06900
C651        C  0.47367609  0.33459122  0.86283449     0.13900
C652        C  0.47594974  0.35968142  0.88766948    -0.20400
C653        C  0.50099701  0.38436128  0.88661952    -0.06900
C654        C  0.02331556  0.38237641  0.86321344     0.13900
C655        C  0.05200564  0.40654369  0.86002910    -0.23800
H656        H  0.03663937  0.35565936  0.81792907     0.15200
H657        H  0.45775986  0.36035580  0.90776231     0.15200
C658        C  0.44564016  0.30934279  0.86441740    -0.23700
H659        H  0.06803960  0.40050284  0.83811862     0.05400
H660        H  0.06799704  0.40529110  0.88293498     0.08700
H661        H  0.04219309  0.43251762  0.85664020     0.08700
H662        H  0.45603749  0.28367291  0.86826911     0.08700
H663        H  0.43071320  0.30999138  0.84069344     0.08700
H664        H  0.42835404  0.31482451  0.88545739     0.05400
C665        C  0.46861284  0.36590389  0.61420900    -0.20400
C666        C  0.49839384  0.38439589  0.61073891    -0.06900
C667        C  0.01791754  0.38611225  0.64250459     0.13900
C668        C  0.01404328  0.36130163  0.66719017    -0.20400
C669        C  0.49294525  0.33504641  0.66159405    -0.06900
C670        C  0.46542388  0.34162184  0.63971954     0.13900
C671        C  0.43262458  0.32339059  0.64374466    -0.23800
H672        H  0.44759732  0.37092855  0.59731346     0.15200
H673        H  0.03160925  0.36008703  0.68819199     0.15200
C674        C  0.04648213  0.41063545  0.64586910    -0.23700
H675        H  0.41350954  0.33175867  0.62491406     0.05400
H676        H  0.42247849  0.32835549  0.66917257     0.08700
H677        H  0.43666113  0.29592492  0.64057870     0.08700
H678        H  0.03652142  0.43662767  0.64859192     0.08700
H679        H  0.06244753  0.40896534  0.62322973     0.08700
H680        H  0.06259183  0.40522456  0.66822070     0.05400
C681        C  0.46907460  0.15079880  0.64597563    -0.20400
C682        C  0.49981737  0.15969937  0.66107464    -0.06900
C683        C  0.01796207  0.14002646  0.66191849     0.13900
C684        C  0.01948338  0.11472125  0.63732720    -0.20400
C685        C  0.49795919  0.11134563  0.60957830    -0.06900
C686        C  0.46782126  0.12677314  0.62018454     0.13900
C687        C  0.43446584  0.11774829  0.60433295    -0.23800
H688        H  0.44605290  0.16277630  0.65441946     0.15200
H689        H  0.04073345  0.09746973  0.63698529     0.15200
C690        C  0.04658420  0.14353774  0.68679998    -0.23700
H691        H  0.41335319  0.13227045  0.61549763     0.05400
H692        H  0.42951246  0.09055748  0.60802170     0.08700
H693        H  0.43495345  0.12325303  0.57700762     0.08700
H694        H  0.03751536  0.13946021  0.71270564     0.08700
H695        H  0.05742002  0.16912321  0.68494261     0.08700
H696        H  0.06701374  0.12496148  0.68200908     0.05400
N697        N  0.99043499  0.74929753  0.30321746    -0.36700
N698        N  0.98755688  0.80102781  0.25168440    -0.57200
N699        N  0.98716798  0.74968323  0.20023118    -0.36700
N700        N  0.99241246  0.69807263  0.25208649    -0.57200
C701        C  0.99826651  0.77693069  0.32135777     0.26900
C702        C  0.00016093  0.72214764  0.32142486     0.26900
C703        C  0.99397847  0.77734026  0.18178060     0.26900
C704        C  0.99679516  0.72250172  0.18209421     0.26900
C705        C  0.98143018  0.82004675  0.27913919     0.35500
C706        C  0.98014941  0.82041373  0.22466873     0.35500
C707        C  0.98582572  0.67891152  0.27920676     0.35500
C708        C  0.98487850  0.67917412  0.22487864     0.35500
C709        C  0.01334652  0.76727610  0.35148322    -0.22000
C710        C  0.01451809  0.73260308  0.35152559    -0.22000
C711        C  0.00797027  0.76759622  0.15147109    -0.22000
C712        C  0.00965144  0.73296834  0.15163586    -0.22000
C713        C  0.96992890  0.85165910  0.26950962    -0.23000
C714        C  0.96924750  0.85192348  0.23498281    -0.23000
C715        C  0.97385687  0.64779228  0.26923015    -0.23000
C716        C  0.97317405  0.64798575  0.23470695    -0.23000
C717        C  0.98923643  0.81028266  0.31252839    -0.18900
C718        C  0.99325762  0.68841216  0.31261019    -0.18400
C719        C  0.99203785  0.68855736  0.19156662    -0.18400
C720        C  0.98623299  0.81093426  0.19099372    -0.18400
H721        H  0.02188132  0.78349488  0.37165111     0.14500
H722        H  0.02409321  0.71688562  0.37169848     0.14500
H723        H  0.01579113  0.78373581  0.13116984     0.14500
H724        H  0.01900415  0.71728016  0.13150115     0.14500
H725        H  0.96342529  0.87259890  0.28564587     0.12800
H726        H  0.96211670  0.87305373  0.21927255     0.12800
H727        H  0.96689419  0.62698456  0.28514606     0.12800
H728        H  0.96578318  0.62727969  0.21864292     0.12800
H729        H  0.97524480  0.74892346  0.28176797     0.26100
H730        H  0.97336818  0.74917247  0.22229190     0.26100
O731        O  0.50316981  0.59426168  0.05345018    -0.80200
O732        O  0.49673199  0.90156371  0.05411401    -0.81800
O733        O  0.44628959  0.49697994  0.09443992    -0.78800
O734        O  0.05856535  0.49801498  0.09894672    -0.77200
O735        O  0.09644402  0.99972061  0.05608966    -0.79000
O736        O  0.40518315  0.00038978  0.05506186    -0.79900
O737        O  0.49878414  0.94240671  0.09475681    -0.81200
O738        O  0.50223592  0.55389647  0.09455431    -0.81500
Eu739      Eu  0.50121887  0.99794743  0.06770845     2.39200
O740        O  0.03474373  0.96430200  0.03454970    -0.89000
O741        O  0.46887763  0.53323499  0.03290407    -0.92600
C742        C  0.50240030  0.58475001  0.08443359     1.02100
C743        C  0.49703160  0.91146736  0.08504415     1.01900
C744        C  0.41520334  0.49719122  0.08440967     1.01800
C745        C  0.08952703  0.49893084  0.08944319     0.99700
H746        H  0.45189057  0.95076854  0.04682604     0.29400
O747        O  0.46634650  0.96444410  0.03320689    -1.01400
H748        H  0.05113530  0.54795140  0.05118148     0.29500
O749        O  0.03728504  0.53370426  0.03713387    -1.03900
O750        O  0.49686352  0.90155796  0.44322502    -0.81200
O751        O  0.50118866  0.59538765  0.44419075    -0.80700
O752        O  0.40289082  0.94350682  0.49716075    -0.79100
O753        O  0.09552783  0.94185795  0.50160691    -0.82500
O754        O  0.09766629  0.55291770  0.50132006    -0.80300
O755        O  0.40467175  0.55327383  0.49867221    -0.79000
O756        O  0.44452548  0.99809101  0.40322249    -0.80500
O757        O  0.05733110  0.99872829  0.40620469    -0.82400
O758        O  0.40333165  0.99954962  0.44314750    -0.79200
O759        O  0.09808014  0.99974308  0.44733707    -0.81800
O760        O  0.44347045  0.90221430  0.49658519    -0.77600
O761        O  0.44481199  0.59437483  0.49805223    -0.77600
O762        O  0.05666303  0.59373395  0.49875348    -0.77300
O763        O  0.05430391  0.90176150  0.49957344    -0.80800
O764        O  0.49745232  0.94249493  0.40306517    -0.80200
O765        O  0.50493326  0.55481381  0.40360639    -0.78500
Eu766      Eu  0.49875653  0.92983674  0.49874813     2.39800
Eu767      Eu  0.50071047  0.56755336  0.49976074     2.39600
Eu768      Eu  0.43079024  0.99880908  0.49815735     2.38400
Eu769      Eu  0.06907536  0.99832014  0.50150609     2.39900
Eu770      Eu  0.50023529  0.99735603  0.43067654     2.39800
O771        O  0.03607330  0.53250702  0.46825309    -0.92900
O772        O  0.46503701  0.96432693  0.46427015    -0.91800
C773        C  0.49653206  0.91149168  0.41228503     1.02200
C774        C  0.50320471  0.58574742  0.41323929     1.01000
C775        C  0.41252699  0.91241209  0.49645420     1.00400
C776        C  0.08528968  0.91109430  0.50028554     1.02400
C777        C  0.08772388  0.58378174  0.49891154     1.01300
C778        C  0.41400958  0.58428892  0.49818756     1.00100
C779        C  0.41350213  0.99907785  0.41254873     1.00200
C780        C  0.08838814  0.99969030  0.41631437     1.02800
H781        H  0.45410242  0.54705907  0.45002588     0.30200
O782        O  0.46807390  0.53322139  0.46453660    -1.05100
H783        H  0.04859581  0.95009970  0.45286446     0.32200
O784        O  0.03481470  0.96423815  0.46698701    -1.07600
N785        N  0.25254773  0.49217465  0.20041805    -0.36700
N786        N  0.20176858  0.48913729  0.25413109    -0.57200
N787        N  0.25462451  0.49286376  0.30301481    -0.36700
N788        N  0.30540953  0.49258448  0.24906802    -0.57200
C789        C  0.22467969  0.48272667  0.18332852     0.26900
C790        C  0.27931431  0.48500373  0.18074525     0.26900
C791        C  0.22842465  0.48557783  0.32326394     0.26900
C792        C  0.28323786  0.48614211  0.32043209     0.26900
C793        C  0.18158348  0.49427053  0.22709807     0.35500
C794        C  0.18264012  0.49481302  0.28154893     0.35500
C795        C  0.32384475  0.49960637  0.22157927     0.35500
C796        C  0.32506085  0.49961133  0.27594837     0.35500
C797        C  0.23374419  0.46924752  0.15251600    -0.22000
C798        C  0.26832317  0.47051427  0.15097207    -0.22000
C799        C  0.24057928  0.47417646  0.35398073    -0.22000
C800        C  0.27519787  0.47451747  0.35220345    -0.22000
C801        C  0.14930569  0.50264042  0.23734538    -0.23000
C802        C  0.14999149  0.50303388  0.27184303    -0.23000
C803        C  0.35542493  0.51099010  0.23102164    -0.23000
C804        C  0.35623211  0.51094869  0.26552672    -0.23000
C805        C  0.19125988  0.48912319  0.19338398    -0.18400
C806        C  0.31305530  0.49348347  0.18822703    -0.18400
C807        C  0.31622826  0.49351163  0.30965066    -0.18400
C808        C  0.19393970  0.49058719  0.31515988    -0.18400
H809        H  0.21708592  0.45999991  0.13294595     0.14500
H810        H  0.28357873  0.46246350  0.13003174     0.14500
H811        H  0.22603942  0.46669164  0.37552606     0.14500
H812        H  0.29250116  0.46763970  0.37227707     0.14500
H813        H  0.12741999  0.50755447  0.22162599     0.12800
H814        H  0.12879720  0.50845752  0.28788548     0.12800
H815        H  0.37583502  0.51818483  0.21479018     0.12800
H816        H  0.37747866  0.51809181  0.28116022     0.12800
H817        H  0.25269612  0.50682769  0.22208405     0.26100
H818        H  0.25334837  0.50568489  0.28031327     0.26100
N819        N  0.25071894  0.69675473  0.49144669    -0.36700
N820        N  0.30163678  0.74889769  0.48848696    -0.57200
N821        N  0.24895328  0.79943131  0.49520054    -0.36700
N822        N  0.19793500  0.74708159  0.49467785    -0.57200
C823        C  0.27815128  0.67851418  0.48291465     0.26900
C824        C  0.22341479  0.67785872  0.48416181     0.26900
C825        C  0.27538591  0.81937804  0.48792331     0.26900
C826        C  0.22064136  0.81833656  0.49199532     0.26900
C827        C  0.32190757  0.72181669  0.49323206     0.35500
C828        C  0.32111093  0.77630914  0.49305749     0.35500
C829        C  0.17922850  0.71934650  0.49969753     0.35500
C830        C  0.17826225  0.77365218  0.50271701     0.35500
C831        C  0.26825675  0.64766346  0.47004573    -0.22000
C832        C  0.23362332  0.64731345  0.47067040    -0.22000
C833        C  0.26375006  0.85149037  0.48043408    -0.22000
C834        C  0.22921911  0.85084376  0.48299674    -0.22000
C835        C  0.35452209  0.73205604  0.50029860    -0.23000
C836        C  0.35406570  0.76659057  0.49993605    -0.23000
C837        C  0.14741839  0.72831381  0.51076337    -0.23000
C838        C  0.14677594  0.76279216  0.51259351    -0.23000
C839        C  0.31185754  0.68803720  0.48882999    -0.18400
C840        C  0.18986253  0.68623419  0.49235201    -0.18400
C841        C  0.18747078  0.80762133  0.49885257    -0.18400
C842        C  0.30981860  0.81001152  0.49009675    -0.18400
H843        H  0.28435763  0.62736597  0.46150688     0.14500
H844        H  0.21778457  0.62660547  0.46290906     0.14500
H845        H  0.27862881  0.87325642  0.47417198     0.14500
H846        H  0.21238837  0.87205363  0.47910227     0.14500
H847        H  0.37646090  0.71631313  0.50477789     0.12800
H848        H  0.37552706  0.78269579  0.50433607     0.12800
H849        H  0.12672279  0.71179376  0.51651626     0.12800
H850        H  0.12547276  0.77813136  0.52000927     0.12800
H851        H  0.25095397  0.71865589  0.50569775     0.26100
H852        H  0.25035695  0.77551619  0.50547823     0.26100
C853        C  0.38580574  0.86715674  0.96476319    -0.20400
C854        C  0.38608188  0.88652468  0.49518228    -0.06900
C855        C  0.36689797  0.87855130  0.52371773     0.13900
C856        C  0.34200235  0.85372463  0.52124630    -0.20400
C857        C  0.33551838  0.83715066  0.49077248    -0.06900
C858        C  0.36100922  0.84245000  0.96107483     0.13900
C859        C  0.36145362  0.82105914  0.92979021    -0.23800
H860        H  0.40475276  0.86980430  0.94556749     0.15200
H861        H  0.32761152  0.84701317  0.54319694     0.15200
C862        C  0.37313677  0.89578033  0.55687694    -0.23700
H863        H  0.35969473  0.83752063  0.90731992     0.05400
H864        H  0.31958119  0.83637588  0.42110087     0.08700
H865        H  0.38541107  0.80652121  0.92886104     0.08700
H866        H  0.39954268  0.89120030  0.56511828     0.08700
H867        H  0.34007199  0.90205863  0.06505781     0.08700
H868        H  0.36877092  0.92326454  0.55425718     0.05400
C869        C  0.38654515  0.63137316  0.46831256    -0.20400
C870        C  0.38755330  0.61036418  0.49657653    -0.06900
C871        C  0.36218564  0.61228701  0.01287999     0.13900
C872        C  0.33792165  0.63784546  0.00918405    -0.20400
C873        C  0.33788246  0.66102802  0.49029358    -0.06900
C874        C  0.36165885  0.65628470  0.46454381     0.13900
C875        C  0.36116248  0.67662914  0.43264093    -0.23800
H876        H  0.40492158  0.62782325  0.44863048     0.15200
H877        H  0.31609147  0.63811669  0.02532353     0.15200
C878        C  0.35684439  0.58561518  0.03906526    -0.23700
H879        H  0.35930492  0.65945544  0.41069218     0.05400
H880        H  0.39695637  0.70303950  0.94043320     0.08700
H881        H  0.33964026  0.69447562  0.43106685     0.08700
H882        H  0.37874446  0.58489819  0.05661268     0.08700
H883        H  0.33910263  0.57953916  0.55474316     0.08700
H884        H  0.33385397  0.59056572  0.05399501     0.05400
C885        C  0.14066705  0.83910794  0.47127640    -0.20400
C886        C  0.16042080  0.83350082  0.50014403    -0.06900
C887        C  0.16438999  0.85981540  0.02782496     0.13900
C888        C  0.13933905  0.88493825  0.02735749    -0.20400
C889        C  0.11093011  0.88434666  0.49956237    -0.06900
C890        C  0.11561754  0.86414905  0.47075007     0.13900
C891        C  0.09470997  0.86942829  0.43932915    -0.23800
H892        H  0.14505672  0.82392019  0.44909581     0.15200
H893        H  0.14000502  0.90477694  0.04607109     0.15200
C894        C  0.19103547  0.86120956  0.05504871    -0.23700
H895        H  0.10215753  0.85181038  0.41899452     0.05400
H896        H  0.09796634  0.89551017  0.43004969     0.08700
H897        H  0.06016709  0.85332629  0.96340914     0.08700
H898        H  0.20115236  0.84908930  0.55755570     0.08700
H899        H  0.20890700  0.83969166  0.05419479     0.08700
H900        H  0.17882311  0.86088991  0.08000556     0.05400
C901        C  0.13942554  0.61084049  0.52085071    -0.20400
C902        C  0.11403155  0.60961541  0.49614641    -0.06900
C903        C  0.11298763  0.63854853  0.97371877     0.13900
C904        C  0.13921122  0.66204072  0.97196186    -0.20400
C905        C  0.16460358  0.65886742  0.49349233    -0.06900
C906        C  0.16430605  0.63565037  0.52026780     0.13900
C907        C  0.18946521  0.63778804  0.54880999    -0.23800
H908        H  0.13925350  0.59289298  0.54118886     0.15200
H909        H  0.13750366  0.68254199  0.95409357     0.15200
C910        C  0.08323916  0.64216106  0.95013287    -0.23700
H911        H  0.18498531  0.61826385  0.56814839     0.05400
H912        H  0.19919148  0.65495360  0.05725083     0.08700
H913        H  0.21540389  0.63416085  0.53931870     0.08700
H914        H  0.06008176  0.64768176  0.96454901     0.08700
H915        H  0.08809945  0.60624451  0.42964032     0.08700
H916        H  0.08667600  0.66299678  0.93196933     0.05400
C917        C  0.37173775  0.52288066  0.38170567    -0.20400
C918        C  0.38750928  0.00077928  0.38625422    -0.06900
C919        C  0.38544663  0.97641806  0.36056354     0.13900
C920        C  0.35998696  0.97942745  0.33618516    -0.20400
C921        C  0.34323274  0.49518853  0.33539793    -0.06900
C922        C  0.34609202  0.52293495  0.35742457     0.13900
C923        C  0.32280665  0.55303677  0.35588283    -0.23800
H924        H  0.37392971  0.54397242  0.39888879     0.15200
H925        H  0.35774467  0.96052346  0.31665511     0.15200
C926        C  0.40934909  0.94678567  0.35935169    -0.23700
H927        H  0.33775084  0.57605429  0.35135140     0.05400
H928        H  0.30957579  0.55575805  0.38017593     0.08700
H929        H  0.30354910  0.55128941  0.33563526     0.08700
H930        H  0.40814736  0.93243417  0.38321336     0.08700
H931        H  0.43548269  0.95559037  0.35553562     0.08700
H932        H  0.40301474  0.92938995  0.33840718     0.05400
C933        C  0.11726678  0.47120222  0.36899791    -0.20400
C934        C  0.11473865  0.00144852  0.39033204    -0.06900
C935        C  0.13486708  0.03035610  0.38646832     0.13900
C936        C  0.15749706  0.03200046  0.35952818    -0.20400
C937        C  0.16861215  0.49107068  0.34292400    -0.06900
C938        C  0.14247576  0.46715162  0.34488387     0.13900
C939        C  0.14081525  0.43649509  0.32265101    -0.23800
H940        H  0.09715424  0.45322234  0.36993678     0.15200
H941        H  0.17267390  0.05426315  0.35616674     0.15200
C942        C  0.13300173  0.05915123  0.41109259    -0.23700
H943        H  0.14014754  0.41357006  0.33853349     0.05400
H944        H  0.17610532  0.93630637  0.32399381     0.08700
H945        H  0.11755489  0.43755297  0.30695370     0.08700
H946        H  0.14928499  0.08037907  0.40356101     0.08700
H947        H  0.12660648  0.56286590  0.41860017     0.08700
H948        H  0.10683645  0.06869210  0.41299207     0.05400
C949        C  0.11527026  0.97133888  0.13481047    -0.20400
C950        C  0.11576348  0.49741636  0.11584277    -0.06900
C951        C  0.14050880  0.52242389  0.11970140     0.13900
C952        C  0.16476843  0.51909828  0.14537668    -0.20400
C953        C  0.16507493  0.49102138  0.16672134    -0.06900
C954        C  0.14032863  0.96924619  0.15970852     0.13900
C955        C  0.14110006  0.93864578  0.18203127    -0.23800
H956        H  0.09791672  0.95093216  0.13170823     0.15200
H957        H  0.18368427  0.53836317  0.14881280     0.15200
C958        C  0.14122120  0.55253940  0.09698518    -0.23700
H959        H  0.14322467  0.91562451  0.16635817     0.05400
H960        H  0.11738899  0.93753167  0.19652151     0.08700
H961        H  0.16253530  0.93858804  0.20008788     0.08700
H962        H  0.11685918  0.56637362  0.09819595     0.08700
H963        H  0.14564644  0.54393435  0.07091063     0.08700
H964        H  0.16171188  0.57013856  0.10405568     0.05400
C965        C  0.36326677  0.02263029  0.11176670    -0.20400
C966        C  0.38868282  0.49501303  0.11041611    -0.06900
C967        C  0.38940254  0.46997600  0.13568935     0.13900
C968        C  0.36429323  0.46990993  0.16039024    -0.20400
C969        C  0.33832234  0.49409595  0.16049905    -0.06900
C970        C  0.33774975  0.02319896  0.13601043     0.13900
C971        C  0.31089566  0.05014093  0.13402998    -0.23800
H972        H  0.36331542  0.04150769  0.09224954     0.15200
H973        H  0.36491712  0.45090538  0.17987966     0.15200
C974        C  0.41585055  0.44254239  0.13606124    -0.23700
H975        H  0.31545772  0.06797309  0.11315352     0.05400
H976        H  0.31070757  0.55999028  0.15748261     0.08700
H977        H  0.28587919  0.03869456  0.12953361     0.08700
H978        H  0.44116306  0.45342603  0.14039800     0.08700
H979        H  0.41357701  0.93151214  0.11362755     0.08700
H980        H  0.41142471  0.42395699  0.15631305     0.05400
C981        C  0.47646417  0.63635645  0.38786622    -0.20400
C982        C  0.50226442  0.61204431  0.38685901    -0.06900
C983        C  0.02353567  0.61211851  0.36208186     0.13900
C984        C  0.02031046  0.63737377  0.33758190    -0.20400
C985        C  0.49701384  0.66216971  0.33670925    -0.06900
C986        C  0.47325682  0.66113237  0.36288515     0.13900
C987        C  0.44390112  0.68536721  0.36394052    -0.23800
H988        H  0.45818333  0.63539259  0.40786892     0.15200
H989        H  0.03829369  0.63828688  0.31729632     0.15200
C990        C  0.05289604  0.58799893  0.35922617    -0.23700
H991        H  0.42699610  0.67995276  0.38526215     0.05400
H992        H  0.42890226  0.68338454  0.34033861     0.08700
H993        H  0.45296155  0.71151764  0.36692839     0.08700
H994        H  0.05009926  0.57282076  0.33595040     0.08700
H995        H  0.05553845  0.57068564  0.38084247     0.08700
H996        H  0.07668247  0.60243363  0.35790430     0.05400
C997        C  0.01427326  0.86205609  0.33649770    -0.20400
C998        C  0.48901211  0.83590172  0.33452953    -0.06900
C999        C  0.46952537  0.83358126  0.36406072     0.13900
C1000       C  0.47335005  0.85793135  0.38941340    -0.20400
C1001       C  0.49457207  0.88568426  0.38525480    -0.06900
C1002       C  0.01613453  0.88819188  0.36004450     0.13900
C1003       C  0.04248249  0.91487708  0.35582581    -0.23800
H1004       H  0.03166075  0.86145740  0.31568861     0.15200
H1005       H  0.45867604  0.85583472  0.41212280     0.15200
C1006       C  0.44389501  0.80634260  0.36934759    -0.23700
H1007       H  0.05919985  0.90946388  0.33425977     0.05400
H1008       H  0.05833915  0.91616641  0.37888932     0.08700
H1009       H  0.03026674  0.93964905  0.35115436     0.08700
H1010       H  0.45156766  0.79065275  0.39120641     0.08700
H1011       H  0.44062611  0.78975542  0.34720009     0.08700
H1012       H  0.41897551  0.81800840  0.37449503     0.05400
C1013       C  0.46759381  0.86354891  0.11165179    -0.20400
C1014       C  0.49518390  0.88544344  0.11142214    -0.06900
C1015       C  0.01852087  0.88624256  0.14282980     0.13900
C1016       C  0.01428463  0.86133272  0.16735925    -0.20400
C1017       C  0.49081237  0.83469200  0.16061140    -0.06900
C1018       C  0.46488245  0.83848070  0.13634245     0.13900
C1019       C  0.43410849  0.81659954  0.13708904    -0.23800
H1020       H  0.44786827  0.86647943  0.09281938     0.15200
H1021       H  0.03172208  0.85980997  0.18845453     0.15200
C1022       C  0.04773805  0.90975447  0.14606962    -0.23700
H1023       H  0.41583749  0.82339065  0.11685426     0.05400
H1024       H  0.42132460  0.81962704  0.16159553     0.08700
H1025       H  0.44145329  0.78983666  0.13371939     0.08700
H1026       H  0.03860716  0.93610831  0.14811047     0.08700
H1027       H  0.06376592  0.90677976  0.12358345     0.08700
H1028       H  0.06346157  0.90426479  0.16868120     0.05400
C1029       C  0.47172138  0.65574745  0.14020208    -0.20400
C1030       C  0.49939948  0.65982435  0.16193372    -0.06900
C1031       C  0.02061117  0.63723122  0.16593505     0.13900
C1032       C  0.02121219  0.61214728  0.14100489    -0.20400
C1033       C  0.50118107  0.61119375  0.11039511    -0.06900
C1034       C  0.47242696  0.63193538  0.11416488     0.13900
C1035       C  0.44233500  0.62865357  0.09102630    -0.23800
H1036       H  0.44959278  0.67148447  0.14354275     0.15200
H1037       H  0.04110140  0.59331163  0.14133253     0.15200
C1038       C  0.04854522  0.63823733  0.19188346    -0.23700
H1039       H  0.42171323  0.64626378  0.09801972     0.05400
H1040       H  0.43244659  0.60264022  0.09215494     0.08700
H1041       H  0.44970905  0.63439466  0.06485178     0.08700
H1042       H  0.03840939  0.63452839  0.21741581     0.08700
H1043       H  0.06143672  0.66288773  0.19078027     0.08700
H1044       H  0.06764000  0.61818300  0.18755333     0.05400
N1045       N  0.98706104  0.74862630  0.80236272    -0.36700
N1046       N  0.98884486  0.79977769  0.75033624    -0.57200
N1047       N  0.98927969  0.74756997  0.69943794    -0.36700
N1048       N  0.98999605  0.69652166  0.75171904    -0.57200
C1049       C  0.99448665  0.77646351  0.82039634     0.26900
C1050       C  0.99696854  0.72180030  0.82098690     0.26900
C1051       C  0.99739205  0.77464935  0.68062936     0.26900
C1052       C  0.99641531  0.71971949  0.68118089     0.26900
C1053       C  0.98151260  0.81944525  0.77700939     0.35500
C1054       C  0.98463364  0.81915287  0.72273989     0.35500
C1055       C  0.98482431  0.67731228  0.77914567     0.35500
C1056       C  0.98415297  0.67671048  0.72472661     0.35500
C1057       C  0.00914277  0.76728057  0.85083400    -0.22000
C1058       C  0.01091711  0.73274579  0.85110520    -0.22000
C1059       C  0.00952736  0.76384679  0.64988036    -0.22000
C1060       C  0.00883612  0.72919422  0.65019312    -0.22000
C1061       C  0.97248717  0.85146735  0.76633675    -0.23000
C1062       C  0.97462814  0.85132476  0.73190765    -0.23000
C1063       C  0.97556620  0.64514501  0.76957466    -0.23000
C1064       C  0.97511957  0.64475832  0.73504813    -0.23000
C1065       C  0.98666599  0.80982636  0.81082058    -0.18900
C1066       C  0.99137522  0.68776062  0.81249798    -0.18400
C1067       C  0.99038327  0.68610062  0.69114440    -0.18400
C1068       C  0.99191416  0.80877241  0.68962966    -0.18400
H1069       H  0.01754198  0.78374557  0.87085647     0.14500
H1070       H  0.02073228  0.71740185  0.87144822     0.14500
H1071       H  0.01759575  0.77933515  0.62917671     0.14500
H1072       H  0.01640197  0.71284933  0.62981733     0.14500
H1073       H  0.96592723  0.87290492  0.78178844     0.12800
H1074       H  0.96978848  0.87256425  0.71553351     0.12800
H1075       H  0.97036397  0.62400843  0.78576067     0.12800
H1076       H  0.96967908  0.62319331  0.71934109     0.12800
H1077       H  0.97250207  0.74798879  0.78048427     0.26100
H1078       H  0.97614635  0.74803236  0.72185642     0.26100
O1079       O  0.49921281  0.59542490  0.55436798    -0.80200
O1080       O  0.49588936  0.90264472  0.55412940    -0.81800
O1081       O  0.44541882  0.49306642  0.59485368    -0.78800
O1082       O  0.05604574  0.49658922  0.59842519    -0.77200
O1083       O  0.09704849  0.99823370  0.55632428    -0.79000
O1084       O  0.40251294  0.99887129  0.55308885    -0.79900
O1085       O  0.49811695  0.94393316  0.59426130    -0.81200
O1086       O  0.49935538  0.55465378  0.59513901    -0.81500
Eu1087     Eu  0.49860821  0.99906998  0.56659030     2.39200
O1088       O  0.03478067  0.96428065  0.53526540    -0.89000
O1089       O  0.46673139  0.53299459  0.53361624    -0.92600
C1090       C  0.49901625  0.58562894  0.58518393     1.02100
C1091       C  0.49647976  0.91289653  0.58491704     1.01900
C1092       C  0.41463722  0.49164757  0.58420336     1.01800
C1093       C  0.08704212  0.49704855  0.58922620     0.99700
H1094       H  0.45044548  0.95072704  0.54616515     0.29400
O1095       O  0.46471105  0.96452435  0.53244301    -1.01400
H1096       H  0.04945044  0.54724172  0.55046332     0.29500
O1097       O  0.03561192  0.53318507  0.53625156    -1.03900
O1098       O  0.49691934  0.90187254  0.94352393    -0.81200
O1099       O  0.50573912  0.59304488  0.94288504    -0.80700
O1100       O  0.40371686  0.94540043  0.99697188    -0.79100
O1101       O  0.09742211  0.94206092  0.00326484    -0.82500
O1102       O  0.09908458  0.55460516  0.00153625    -0.80300
O1103       O  0.40779584  0.55540151  0.99659650    -0.79000
O1104       O  0.44551790  0.99912073  0.90388696    -0.80500
O1105       O  0.05744002  0.99648252  0.90436206    -0.82400
O1106       O  0.40456741  0.00076449  0.94402523    -0.79200
O1107       O  0.09812926  0.99753654  0.94557317    -0.81800
O1108       O  0.44367334  0.90360845  0.99497240    -0.77600
O1109       O  0.44886387  0.59538637  0.99513266    -0.77600
O1110       O  0.05797302  0.59518953  0.99994423    -0.77300
O1111       O  0.05624121  0.90200066  0.00344726    -0.80800
O1112       O  0.49864193  0.94293056  0.90340457    -0.80200
O1113       O  0.50619735  0.55206331  0.90247323    -0.78500
Eu1114     Eu  0.49971665  0.92944906  0.99889618     2.39800
Eu1115     Eu  0.50379927  0.56597359  0.99840245     2.39600
Eu1116     Eu  0.43252299  0.99968022  0.99942677     2.38400
Eu1117     Eu  0.06940688  0.99744977  0.00029496     2.39900
Eu1118     Eu  0.50105818  0.99785409  0.93148277     2.39800
O1119       O  0.03713610  0.53274001  0.96846038    -0.92900
O1120       O  0.46610915  0.96493416  0.96524921    -0.91800
C1121       C  0.49714656  0.91192663  0.91270957     1.02200
C1122       C  0.50684524  0.58317439  0.91199169     1.01000
C1123       C  0.41288699  0.91429070  0.99506652     1.00400
C1124       C  0.08730204  0.91127251  0.00368820     1.02400
C1125       C  0.08910030  0.58554976  0.99967364     1.01300
C1126       C  0.41770935  0.58617446  0.99520526     1.00100
C1127       C  0.41453484  0.00008062  0.91328361     1.00200
C1128       C  0.08846498  0.99732407  0.91448594     1.02800
H1129       H  0.45575230  0.54616525  0.94939366     0.30200
O1130       O  0.46935790  0.53213277  0.96403216    -1.05100
H1131       H  0.04977414  0.94768381  0.95294405     0.32200
O1132       O  0.03565916  0.96206577  0.96648844    -1.07600
N1133       N  0.25174666  0.49324120  0.69942695    -0.36700
N1134       N  0.20073820  0.49630027  0.75246336    -0.57200
N1135       N  0.25340144  0.49590430  0.80220175    -0.36700
N1136       N  0.30456687  0.48964776  0.74912848    -0.57200
C1137       C  0.22331454  0.48696108  0.68160451     0.26900
C1138       C  0.27817045  0.48448567  0.67989923     0.26900
C1139       C  0.22637362  0.49176253  0.82227698     0.26900
C1140       C  0.28115173  0.48813490  0.82055724     0.26900
C1141       C  0.18104342  0.50224740  0.72527055     0.35500
C1142       C  0.18197509  0.50387074  0.77964024     0.35500
C1143       C  0.32389381  0.49389378  0.72164678     0.35500
C1144       C  0.32477906  0.49485246  0.77611228     0.35500
C1145       C  0.23178783  0.47441044  0.65022691    -0.22000
C1146       C  0.26637266  0.47268209  0.64923717    -0.22000
C1147       C  0.23717179  0.48154086  0.85388740    -0.22000
C1148       C  0.27173788  0.47930820  0.85283224    -0.22000
C1149       C  0.14949528  0.51344996  0.73521361    -0.23000
C1150       C  0.15014380  0.51459148  0.76969221    -0.23000
C1151       C  0.35662859  0.50141888  0.73127745    -0.23000
C1152       C  0.35722728  0.50186931  0.76575349    -0.23000
C1153       C  0.19010606  0.49475672  0.69185483    -0.18400
C1154       C  0.31259693  0.48948018  0.68807027    -0.18400
C1155       C  0.31484953  0.49194271  0.81001551    -0.18400
C1156       C  0.19241186  0.49858187  0.81326447    -0.18400
H1157       H  0.21485202  0.46765802  0.62988176     0.14500
H1158       H  0.28116160  0.46431070  0.62808946     0.14500
H1159       H  0.22180870  0.47663772  0.87560687     0.14500
H1160       H  0.28813606  0.47253519  0.87367515     0.14500
H1161       H  0.12803344  0.51958580  0.71933737     0.12800
H1162       H  0.12937995  0.52179547  0.78563333     0.12800
H1163       H  0.37791734  0.50606659  0.71523420     0.12800
H1164       H  0.37909514  0.50684724  0.78139326     0.12800
H1165       H  0.25296802  0.50672149  0.72175728     0.26100
H1166       H  0.25347863  0.50727564  0.77876781     0.26100
N1167       N  0.25367327  0.69821286  0.98812438    -0.36700
N1168       N  0.30395717  0.75053720  0.98372395    -0.57200
N1169       N  0.25122856  0.80035003  0.99257038    -0.36700
N1170       N  0.20089187  0.74802782  0.99441493    -0.57200
C1171       C  0.28087184  0.68064675  0.97762110     0.26900
C1172       C  0.22612445  0.67942393  0.98143836     0.26900
C1173       C  0.27688651  0.81987339  0.98241712     0.26900
C1174       C  0.22260107  0.81858579  0.98908006     0.26900
C1175       C  0.32386451  0.72364395  0.99043593     0.35500
C1176       C  0.32250137  0.77802162  0.99086063     0.35500
C1177       C  0.18349007  0.72002701  0.00196051     0.35500
C1178       C  0.18254615  0.77432978  0.00577042     0.35500
C1179       C  0.27053835  0.65033686  0.96381265    -0.22000
C1180       C  0.23588617  0.64966337  0.96600387    -0.22000
C1181       C  0.26444936  0.85091869  0.97216341    -0.22000
C1182       C  0.23006891  0.85010621  0.97635793    -0.22000
C1183       C  0.35521235  0.73410119  0.00183183    -0.23000
C1184       C  0.35443031  0.76865026  0.00181504    -0.23000
C1185       C  0.15388286  0.72855510  0.01814335    -0.23000
C1186       C  0.15329334  0.76305673  0.02056732    -0.23000
C1187       C  0.31473737  0.69001995  0.98363156    -0.18400
C1188       C  0.19311951  0.68716850  0.99229857    -0.18400
C1189       C  0.19057859  0.80835541  0.00009388    -0.18400
C1190       C  0.31132505  0.81139726  0.98579566    -0.18400
H1191       H  0.28639182  0.63045020  0.95398248     0.14500
H1192       H  0.21983989  0.62907591  0.95835415     0.14500
H1193       H  0.27875932  0.87221540  0.96347672     0.14500
H1194       H  0.21269299  0.87066979  0.97146730     0.14500
H1195       H  0.37655775  0.71850969  0.00896278     0.12800
H1196       H  0.37494475  0.78499249  0.00906850     0.12800
H1197       H  0.13464938  0.71170898  0.02704262     0.12800
H1198       H  0.13346288  0.77815214  0.03156680     0.12800
H1199       H  0.25442348  0.71947060  0.00335437     0.26100
H1200       H  0.25358573  0.77774237  0.00550809     0.26100
C1201       C  0.37957839  0.87000667  0.46466493    -0.20400
C1202       C  0.38609607  0.88894911  0.99248884    -0.06900
C1203       C  0.36099605  0.88611187  0.01717446     0.13900
C1204       C  0.33664315  0.86091650  0.01390756    -0.20400
C1205       C  0.33652317  0.83886515  0.98636221    -0.06900
C1206       C  0.35399085  0.84585633  0.46196648     0.13900
C1207       C  0.34604094  0.83034932  0.42831744    -0.23800
H1208       H  0.39410426  0.87656157  0.44274490     0.15200
H1209       H  0.31781987  0.85800938  0.03319693     0.15200
C1210       C  0.36056398  0.90876328  0.04756717    -0.23700
H1211       H  0.36273493  0.84007028  0.40838981     0.05400
H1212       H  0.34025333  0.80313054  0.92839261     0.08700
H1213       H  0.34932200  0.80264125  0.42957222     0.08700
H1214       H  0.38490241  0.90656671  0.06140712     0.08700
H1215       H  0.35620131  0.88631371  0.57672249     0.08700
H1216       H  0.35648493  0.93526442  0.03973716     0.05400
C1217       C  0.39487686  0.63830735  0.96877415    -0.20400
C1218       C  0.39132443  0.61268151  0.99269601    -0.06900
C1219       C  0.36331058  0.61460353  0.52203433     0.13900
C1220       C  0.33878062  0.63994504  0.51853085    -0.20400
C1221       C  0.34119393  0.66317941  0.98499512    -0.06900
C1222       C  0.36976625  0.66296888  0.96395762     0.13900
C1223       C  0.37417610  0.68764846  0.93564929    -0.23800
H1224       H  0.41683571  0.63836679  0.95281011     0.15200
H1225       H  0.32041097  0.64360374  0.53819974     0.15200
C1226       C  0.36307114  0.59367872  0.55355207    -0.23700
H1227       H  0.37742037  0.67367942  0.91172779     0.05400
H1228       H  0.38481239  0.69120338  0.43094346     0.08700
H1229       H  0.35226924  0.70475410  0.93220988     0.08700
H1230       H  0.38430388  0.57551004  0.55507118     0.08700
H1231       H  0.35369266  0.56069763  0.02691272     0.08700
H1232       H  0.36487301  0.61038090  0.57585765     0.05400
C1233       C  0.13739292  0.83374319  0.97928674    -0.20400
C1234       C  0.16355219  0.83415944  0.00315147    -0.06900
C1235       C  0.15466009  0.85266625  0.52939558     0.13900
C1236       C  0.13028445  0.87836145  0.52859588    -0.20400
C1237       C  0.11310707  0.88440530  0.00344465    -0.06900
C1238       C  0.11208515  0.85843540  0.97916209     0.13900
C1239       C  0.08521602  0.85744006  0.95210982    -0.23800
H1240       H  0.13714398  0.81418677  0.96028397     0.15200
H1241       H  0.12588612  0.89348190  0.55083066     0.15200
C1242       C  0.17378099  0.84552151  0.56148256    -0.23700
H1243       H  0.08967498  0.83674172  0.93389751     0.05400
H1244       H  0.08495924  0.88150753  0.93802001     0.08700
H1245       H  0.06770070  0.86519267  0.44473257     0.08700
H1246       H  0.20560053  0.88479534  0.05263192     0.08700
H1247       H  0.16925931  0.81917686  0.56938352     0.08700
H1248       H  0.16571775  0.86244968  0.58216074     0.05400
C1249       C  0.14401210  0.60940944  0.01796314    -0.20400
C1250       C  0.11541909  0.61176129  0.99705392    -0.06900
C1251       C  0.11447213  0.63269597  0.46916560     0.13900
C1252       C  0.14001422  0.65690023  0.46801934    -0.20400
C1253       C  0.16738834  0.66001624  0.99350357    -0.06900
C1254       C  0.16962818  0.63353397  0.01705922     0.13900
C1255       C  0.19819238  0.63141367  0.04225394    -0.23800
H1256       H  0.14589214  0.58904319  0.03575826     0.15200
H1257       H  0.14055790  0.67476563  0.44750051     0.15200
C1258       C  0.08843724  0.63155966  0.44133019    -0.23700
H1259       H  0.19502413  0.61007280  0.05987845     0.05400
H1260       H  0.18749281  0.66281619  0.56107199     0.08700
H1261       H  0.22251366  0.62766475  0.02933817     0.08700
H1262       H  0.06312353  0.63731441  0.45146186     0.08700
H1263       H  0.07983459  0.61857540  0.93566933     0.08700
H1264       H  0.09369864  0.65020257  0.42135035     0.05400
C1265       C  0.36962169  0.52128330  0.88287658    -0.20400
C1266       C  0.38858364  0.00040452  0.88665355    -0.06900
C1267       C  0.38570825  0.97355599  0.86356466     0.13900
C1268       C  0.36108956  0.97525031  0.83809963    -0.20400
C1269       C  0.34136434  0.49338592  0.83642912    -0.06900
C1270       C  0.34452872  0.52151899  0.85800357     0.13900
C1271       C  0.32215190  0.55224619  0.85542605    -0.23800
H1272       H  0.37227764  0.54284161  0.89940426     0.15200
H1273       H  0.35838488  0.95459304  0.82050510     0.15200
C1274       C  0.40778544  0.94263230  0.86649924    -0.23700
H1275       H  0.33789526  0.57485194  0.85159337     0.05400
H1276       H  0.30791245  0.55533986  0.87910210     0.08700
H1277       H  0.30381462  0.55106076  0.83431782     0.08700
H1278       H  0.40473919  0.93105974  0.89165200     0.08700
H1279       H  0.43457588  0.94942059  0.86302168     0.08700
H1280       H  0.40119521  0.92347705  0.84724446     0.05400
C1281       C  0.11911707  0.47339699  0.86894961    -0.20400
C1282       C  0.11486107  0.99758701  0.88845152    -0.06900
C1283       C  0.13527090  0.02597905  0.88245250     0.13900
C1284       C  0.16002869  0.02427484  0.85750113    -0.20400
C1285       C  0.16634963  0.49876495  0.84016162    -0.06900
C1286       C  0.14343450  0.47199067  0.84360996     0.13900
C1287       C  0.14510684  0.44153422  0.82109699    -0.23800
H1288       H  0.10157439  0.45299943  0.87156081     0.15200
H1289       H  0.17563770  0.04600556  0.85283659     0.15200
C1290       C  0.13093705  0.05877771  0.90097328    -0.23700
H1291       H  0.12642942  0.42227148  0.82829498     0.05400
H1292       H  0.17359463  0.92561657  0.82539336     0.08700
H1293       H  0.13981863  0.44880550  0.79468081     0.08700
H1294       H  0.15458274  0.06496147  0.91469755     0.08700
H1295       H  0.11588350  0.56842716  0.91261584     0.08700
H1296       H  0.12533357  0.07914774  0.88264930     0.05400
C1297       C  0.12319856  0.96623532  0.62598977    -0.20400
C1298       C  0.11289138  0.49685834  0.61580151    -0.06900
C1299       C  0.12854145  0.52684715  0.62627895     0.13900
C1300       C  0.15390181  0.52546058  0.65096961    -0.20400
C1301       C  0.16308987  0.49482329  0.66592747    -0.06900
C1302       C  0.14785508  0.96386400  0.65115840     0.13900
C1303       C  0.15658569  0.92947982  0.66466561    -0.23800
H1304       H  0.11153849  0.94358135  0.61644217     0.15200
H1305       H  0.16640869  0.54831380  0.65892601     0.15200
C1306       C  0.11807755  0.56021532  0.61165648    -0.23700
H1307       H  0.16593510  0.91333239  0.64392749     0.05400
H1308       H  0.13371629  0.91790041  0.67534622     0.08700
H1309       H  0.17620630  0.93005553  0.68465249     0.08700
H1310       H  0.09103047  0.56484169  0.61671623     0.08700
H1311       H  0.12187484  0.55978829  0.58416465     0.08700
H1312       H  0.13281846  0.58129880  0.62253646     0.05400
C1313       C  0.36051261  0.02089043  0.60951103    -0.20400
C1314       C  0.38781887  0.48852860  0.60971798    -0.06900
C1315       C  0.38905241  0.46453986  0.63601535     0.13900
C1316       C  0.36370406  0.46484129  0.66051615    -0.20400
C1317       C  0.33791181  0.48931924  0.66029014    -0.06900
C1318       C  0.33593242  0.02256045  0.63448585     0.13900
C1319       C  0.31024301  0.05061846  0.63227888    -0.23800
H1320       H  0.36018065  0.03939123  0.58973120     0.15200
H1321       H  0.36434838  0.44629034  0.68044198     0.15200
C1322       C  0.41646913  0.43815670  0.63803628    -0.23700
H1323       H  0.32335805  0.07518820  0.63204809     0.05400
H1324       H  0.29498032  0.54302258  0.65403636     0.08700
H1325       H  0.29536421  0.04805359  0.60865115     0.08700
H1326       H  0.44134264  0.45015912  0.64184102     0.08700
H1327       H  0.41163422  0.92996765  0.61314862     0.08700
H1328       H  0.41262008  0.42054833  0.65927518     0.05400
C1329       C  0.48387072  0.63623170  0.88852595    -0.20400
C1330       C  0.50736015  0.60983243  0.88582465    -0.06900
C1331       C  0.02462378  0.61313397  0.86282775     0.13900
C1332       C  0.02105276  0.63853748  0.83847250    -0.20400
C1333       C  0.50293918  0.66107057  0.83615391    -0.06900
C1334       C  0.48078302  0.66129895  0.86387417     0.13900
C1335       C  0.45276096  0.68676660  0.86797595    -0.23800
H1336       H  0.46667779  0.63657886  0.90951449     0.15200
H1337       H  0.03916985  0.64027957  0.81838206     0.15200
C1338       C  0.05407895  0.58917912  0.86079547    -0.23700
H1339       H  0.42845791  0.67347374  0.87072314     0.05400
H1340       H  0.44980885  0.70395416  0.84630604     0.08700
H1341       H  0.45747841  0.70200221  0.89092518     0.08700
H1342       H  0.04507914  0.56305196  0.85735786     0.08700
H1343       H  0.06925455  0.59075894  0.88419393     0.08700
H1344       H  0.07074845  0.59519268  0.83942616     0.05400
C1345       C  0.01498313  0.85889692  0.83649533    -0.20400
C1346       C  0.49133435  0.83556687  0.83619595    -0.06900
C1347       C  0.46836474  0.83579669  0.86317090     0.13900
C1348       C  0.47106397  0.86083256  0.88794929    -0.20400
C1349       C  0.49558649  0.88600507  0.88606774    -0.06900
C1350       C  0.01939928  0.88293270  0.86184746     0.13900
C1351       C  0.04897526  0.90628891  0.86011901    -0.23800
H1352       H  0.03283228  0.85739562  0.81611813     0.15200
H1353       H  0.45353452  0.86100378  0.90862655     0.15200
C1354       C  0.44060310  0.81037435  0.86645197    -0.23700
H1355       H  0.06521927  0.90060912  0.83826214     0.05400
H1356       H  0.06451808  0.90358196  0.88328097     0.08700
H1357       H  0.04016054  0.93270383  0.85755721     0.08700
H1358       H  0.44424458  0.79596039  0.89009709     0.08700
H1359       H  0.43961066  0.79228655  0.84528842     0.08700
H1360       H  0.41590208  0.82361541  0.86729400     0.05400
C1361       C  0.46843519  0.86380387  0.61051806    -0.20400
C1362       C  0.49470019  0.88720113  0.61154900    -0.06900
C1363       C  0.02505254  0.88139631  0.63771701     0.13900
C1364       C  0.02259105  0.85556395  0.66168183    -0.20400
C1365       C  0.48952216  0.83755015  0.66183152    -0.06900
C1366       C  0.46519183  0.83932358  0.63562152     0.13900
C1367       C  0.43543372  0.81608108  0.63353858    -0.23800
H1368       H  0.44996308  0.86500921  0.59031121     0.15200
H1369       H  0.04287481  0.85147905  0.67968979     0.15200
C1370       C  0.05589897  0.90315860  0.63755512    -0.23700
H1371       H  0.41178371  0.83116743  0.63273548     0.05400
H1372       H  0.43392699  0.79881420  0.65527813     0.08700
H1373       H  0.43701770  0.80075005  0.61027441     0.08700
H1374       H  0.04873709  0.92974944  0.64239999     0.08700
H1375       H  0.06827397  0.90119439  0.61275699     0.08700
H1376       H  0.07442924  0.89542049  0.65721048     0.05400
C1377       C  0.47099296  0.65797044  0.64039750    -0.20400
C1378       C  0.49978556  0.66265189  0.66050262    -0.06900
C1379       C  0.02148383  0.63866542  0.66209778     0.13900
C1380       C  0.02261323  0.61415160  0.63671746    -0.20400
C1381       C  0.49868731  0.61215308  0.61093472    -0.06900
C1382       C  0.47024420  0.63314268  0.61534562     0.13900
C1383       C  0.43895050  0.62891274  0.59405844    -0.23800
H1384       H  0.44902034  0.67373605  0.64448870     0.15200
H1385       H  0.04487443  0.59854496  0.63405977     0.15200
C1386       C  0.05145771  0.64306378  0.68516394    -0.23700
H1387       H  0.41878120  0.64692343  0.60132752     0.05400
H1388       H  0.42916687  0.60301751  0.59703163     0.08700
H1389       H  0.44482355  0.63332692  0.56723612     0.08700
H1390       H  0.04416112  0.63812391  0.71151077     0.08700
H1391       H  0.06100058  0.66914860  0.68315591     0.08700
H1392       H  0.07230554  0.62548284  0.67876597     0.05400
N1393       N  0.49130714  0.24893193  0.30207575    -0.36700
N1394       N  0.49168633  0.30010727  0.25075930    -0.57200
N1395       N  0.48831302  0.24798921  0.19924406    -0.36700
N1396       N  0.48970055  0.19705062  0.25053064    -0.57200
C1397       C  0.50012559  0.27618724  0.32044855     0.26900
C1398       C  0.49993042  0.22137820  0.32016194     0.26900
C1399       C  0.49723623  0.27526941  0.18120482     0.26900
C1400       C  0.49709466  0.22042118  0.18118787     0.26900
C1401       C  0.48626424  0.31974530  0.27795679     0.35500
C1402       C  0.48473080  0.31929017  0.22352409     0.35500
C1403       C  0.48425759  0.17798622  0.27789797     0.35500
C1404       C  0.48303577  0.17749158  0.22353613     0.35500
C1405       C  0.51450306  0.26586691  0.35065135    -0.22000
C1406       C  0.51435355  0.23121330  0.35048304    -0.22000
C1407       C  0.51183759  0.26497138  0.15140232    -0.22000
C1408       C  0.51174752  0.23035198  0.15138910    -0.22000
C1409       C  0.47584446  0.35157247  0.26797518    -0.23000
C1410       C  0.47484222  0.35127110  0.23344550    -0.23000
C1411       C  0.47366242  0.14618719  0.26828141    -0.23000
C1412       C  0.47288046  0.14588615  0.23376099    -0.23000
C1413       C  0.49324019  0.30996310  0.31145618    -0.18900
C1414       C  0.49241625  0.18780530  0.31108363    -0.18400
C1415       C  0.49062410  0.18664644  0.19022213    -0.18400
C1416       C  0.49032626  0.30911150  0.18998133    -0.18400
H1417       H  0.52357076  0.28166159  0.37092949     0.14500
H1418       H  0.52325495  0.21510381  0.37064376     0.14500
H1419       H  0.52123759  0.28079411  0.13155062     0.14500
H1420       H  0.52122198  0.21432884  0.13157581     0.14500
H1421       H  0.47002853  0.37288891  0.28388421     0.12800
H1422       H  0.46816444  0.37233674  0.21746642     0.12800
H1423       H  0.46815399  0.12508030  0.28440540     0.12800
H1424       H  0.46684716  0.12450177  0.21802595     0.12800
H1425       H  0.47649887  0.24913572  0.28036998     0.26100
H1426       H  0.47363781  0.24833743  0.22075772     0.26100
O1427       O  0.00019054  0.09487441  0.05308722    -0.80200
O1428       O  0.00085106  0.40272219  0.05767871    -0.81800
O1429       O  0.94451406  0.99799392  0.09467380    -0.78800
O1430       O  0.55665264  0.99292882  0.09575733    -0.77200
O1431       O  0.59915386  0.49758541  0.05597920    -0.79000
O1432       O  0.90739452  0.49972035  0.05781219    -0.79900
O1433       O  0.00223468  0.44365984  0.09817876    -0.81200
O1434       O  0.00043154  0.05511270  0.09466146    -0.81500
Eu1435     Eu  0.00317144  0.49917695  0.07083035     2.39200
O1436       O  0.53552305  0.46242282  0.03415057    -0.89000
O1437       O  0.96622010  0.03310382  0.03277449    -0.92600
C1438       C  0.00009875  0.08590805  0.08430996     1.02100
C1439       C  0.00092072  0.41265411  0.08857611     1.01900
C1440       C  0.91334800  0.99752138  0.08495652     1.01800
C1441       C  0.58755589  0.99103027  0.08610994     0.99700
H1442       H  0.95478292  0.45112342  0.05028308     0.29400
O1443       O  0.96901486  0.46494773  0.03656901    -1.01400
H1444       H  0.55020971  0.04538647  0.04826540     0.29500
O1445       O  0.53593945  0.03176163  0.03406728    -1.03900
O1446       O  0.99770236  0.40222623  0.44581990    -0.81200
O1447       O  0.00140945  0.09563910  0.44645413    -0.80700
O1448       O  0.90414747  0.44417810  0.50211114    -0.79100
O1449       O  0.59964506  0.44538436  0.50144177    -0.82500
O1450       O  0.59503362  0.05417347  0.49584176    -0.80300
O1451       O  0.90450793  0.05418456  0.49816072    -0.79000
O1452       O  0.94880781  0.49520827  0.40385539    -0.80500
O1453       O  0.56129094  0.50285202  0.40720573    -0.82400
O1454       O  0.90756131  0.49581622  0.44374245    -0.79200
O1455       O  0.60106695  0.50572733  0.44914570    -0.81800
O1456       O  0.94493325  0.40316560  0.50101572    -0.77600
O1457       O  0.94481730  0.09497990  0.49642233    -0.77600
O1458       O  0.55417016  0.09494059  0.49399033    -0.77300
O1459       O  0.55917555  0.40457478  0.49817815    -0.80800
O1460       O  0.00131075  0.44308556  0.40556809    -0.80200
O1461       O  0.00200696  0.05518544  0.40547626    -0.78500
Eu1462     Eu  0.00092528  0.42979326  0.50134135     2.39800
Eu1463     Eu  0.00039066  0.06714699  0.50114612     2.39600
Eu1464     Eu  0.93306706  0.49864356  0.50035552     2.38400
Eu1465     Eu  0.57104022  0.50065303  0.50268542     2.39900
Eu1466     Eu  0.00324702  0.49824008  0.43316458     2.39800
O1467       O  0.53374685  0.03207475  0.46483105    -0.92900
O1468       O  0.96805202  0.46488393  0.46671139    -0.91800
C1469       C  0.99865005  0.41220120  0.41496694     1.02200
C1470       C  0.00208413  0.08612507  0.41547051     1.01000
C1471       C  0.91390164  0.41314314  0.50195267     1.00400
C1472       C  0.59002658  0.41447499  0.49911619     1.02400
C1473       C  0.58527341  0.08519626  0.49331877     1.01300
C1474       C  0.91391863  0.08500437  0.49609537     1.00100
C1475       C  0.91778304  0.49455762  0.41305820     1.00200
C1476       C  0.59195829  0.50545404  0.41793464     1.02800
H1477       H  0.95252612  0.04695923  0.45252572     0.30200
O1478       O  0.96645433  0.03305029  0.46696971    -1.05100
H1479       H  0.55319283  0.45229795  0.45285821     0.32200
O1480       O  0.53865645  0.46578619  0.46684366    -1.07600
N1481       N  0.75060748  0.98857297  0.19956423    -0.36700
N1482       N  0.69866933  0.98479629  0.25154128    -0.57200
N1483       N  0.75042466  0.99263030  0.30254469    -0.36700
N1484       N  0.80264471  0.99218408  0.25057755    -0.57200
C1485       C  0.72356839  0.97934807  0.18082986     0.26900
C1486       C  0.77828921  0.98439192  0.18029160     0.26900
C1487       C  0.72358471  0.98597641  0.32211151     0.26900
C1488       C  0.77842001  0.98795345  0.32165928     0.26900
C1489       C  0.67852077  0.98605299  0.22398368     0.35500
C1490       C  0.67846930  0.98952477  0.27834595     0.35500
C1491       C  0.82212157  0.99764883  0.22341134     0.35500
C1492       C  0.82210857  0.99822758  0.27797144     0.35500
C1493       C  0.73416229  0.96940219  0.14922444    -0.22000
C1494       C  0.76864673  0.97242167  0.14894144    -0.22000
C1495       C  0.73463354  0.97731877  0.35410501    -0.22000
C1496       C  0.76921420  0.97844662  0.35380282    -0.22000
C1497       C  0.64525803  0.99063309  0.23339042    -0.23000
C1498       C  0.64526101  0.99310954  0.26777857    -0.23000
C1499       C  0.85423073  0.00683495  0.23365925    -0.23000
C1500       C  0.85425885  0.00708103  0.26817796    -0.23000
C1501       C  0.68939361  0.98210024  0.19044541    -0.18400
C1502       C  0.81182198  0.99270645  0.18954793    -0.18400
C1503       C  0.81194405  0.99420970  0.31172809    -0.18400
C1504       C  0.68931552  0.98869939  0.31233076    -0.18400
H1505       H  0.71862535  0.96111610  0.12835294     0.14500
H1506       H  0.78474712  0.96687575  0.12784742     0.14500
H1507       H  0.71936228  0.97084478  0.37547512     0.14500
H1508       H  0.78569891  0.97325685  0.37502267     0.14500
H1509       H  0.62322865  0.99196102  0.21718377     0.12800
H1510       H  0.62325085  0.99660284  0.28324461     0.12800
H1511       H  0.87552258  0.01249456  0.21794705     0.12800
H1512       H  0.87557970  0.01298611  0.28423806     0.12800
H1513       H  0.74967363  0.00090661  0.22250344     0.26100
H1514       H  0.74960983  0.00345134  0.27885847     0.26100
N1515       N  0.75059196  0.19768099  0.48550571    -0.36700
N1516       N  0.80307812  0.24862406  0.49107224    -0.57200
N1517       N  0.75171854  0.29950229  0.49681281    -0.36700
N1518       N  0.69909865  0.24847575  0.48844746    -0.57200
C1519       C  0.77809817  0.17988025  0.47630223     0.26900
C1520       C  0.72316342  0.17960770  0.47652752     0.26900
C1521       C  0.77924382  0.31883660  0.49247116     0.26900
C1522       C  0.72442085  0.31890648  0.49012779     0.26900
C1523       C  0.82165480  0.22043452  0.49561317     0.35500
C1524       C  0.82210158  0.27444682  0.50225325     0.35500
C1525       C  0.67990677  0.22102102  0.49373669     0.35500
C1526       C  0.68040529  0.27539583  0.49770367     0.35500
C1527       C  0.76810321  0.15016514  0.46097617    -0.22000
C1528       C  0.73336201  0.15001238  0.46109043    -0.22000
C1529       C  0.76930940  0.35097923  0.48300008    -0.22000
C1530       C  0.73465749  0.35104515  0.48157948    -0.22000
C1531       C  0.85274264  0.22836067  0.50966904    -0.23000
C1532       C  0.85300896  0.26268732  0.51387129    -0.23000
C1533       C  0.64884760  0.23064799  0.50627459    -0.23000
C1534       C  0.64906238  0.26513439  0.50847690    -0.23000
C1535       C  0.81167543  0.18804527  0.48505884    -0.18400
C1536       C  0.68964318  0.18764720  0.48564675    -0.18400
C1537       C  0.69063209  0.30921489  0.49488744    -0.18400
C1538       C  0.81285295  0.30862984  0.49900098    -0.18400
H1539       H  0.78419467  0.13019400  0.45169527     0.14500
H1540       H  0.71746201  0.12991987  0.45193613     0.14500
H1541       H  0.78530266  0.37232599  0.47818455     0.14500
H1542       H  0.71878614  0.37252298  0.47565014     0.14500
H1543       H  0.87324293  0.21126900  0.51578663     0.12800
H1544       H  0.87372577  0.27739040  0.52371594     0.12800
H1545       H  0.62812213  0.21459593  0.51305519     0.12800
H1546       H  0.62858409  0.28086496  0.51722598     0.12800
H1547       H  0.75070718  0.21833178  0.50153699     0.26100
H1548       H  0.75131297  0.27580175  0.50776261     0.26100
C1549       C  0.88394434  0.36936521  0.97169506    -0.20400
C1550       C  0.88773511  0.38685052  0.50211780    -0.06900
C1551       C  0.86376018  0.38422739  0.52802219     0.13900
C1552       C  0.84011261  0.35802587  0.52692559    -0.20400
C1553       C  0.83961122  0.33479005  0.50032015    -0.06900
C1554       C  0.85828492  0.34523898  0.96955074     0.13900
C1555       C  0.85336305  0.32591797  0.93733376    -0.23800
H1556       H  0.90059690  0.37304187  0.95062660     0.15200
H1557       H  0.82171577  0.35576604  0.54670164     0.15200
C1558       C  0.86359994  0.40841895  0.55718087    -0.23700
H1559       H  0.87081743  0.33447741  0.91755192     0.05400
H1560       H  0.83686624  0.31617148  0.43199428     0.08700
H1561       H  0.85796285  0.29871150  0.94158702     0.08700
H1562       H  0.88842002  0.40758706  0.57022354     0.08700
H1563       H  0.84894028  0.40095738  0.07727190     0.08700
H1564       H  0.85852308  0.43435989  0.54811366     0.05400
C1565       C  0.88837855  0.13372852  0.46625175    -0.20400
C1566       C  0.88710465  0.11058505  0.49279079    -0.06900
C1567       C  0.86421037  0.11463198  0.01788114     0.13900
C1568       C  0.84101166  0.14125784  0.01605820    -0.20400
C1569       C  0.83713939  0.16063051  0.48586213    -0.06900
C1570       C  0.86317920  0.15838180  0.46211119     0.13900
C1571       C  0.86382872  0.18143960  0.43217505    -0.23800
H1572       H  0.90874577  0.13206724  0.44841919     0.15200
H1573       H  0.82216733  0.14407456  0.03539128     0.15200
C1574       C  0.86266721  0.09054240  0.04690725    -0.23700
H1575       H  0.88532328  0.17551293  0.41559847     0.05400
H1576       H  0.89154856  0.19753053  0.93446492     0.08700
H1577       H  0.84020125  0.17858132  0.41729425     0.08700
H1578       H  0.88723779  0.08982010  0.06041058     0.08700
H1579       H  0.85233909  0.06110665  0.53293913     0.08700
H1580       H  0.84298561  0.09796207  0.06515123     0.05400
C1581       C  0.64269331  0.34060904  0.46938869    -0.20400
C1582       C  0.66459013  0.33609467  0.49687765    -0.06900
C1583       C  0.65646013  0.35270868  0.03431958     0.13900
C1584       C  0.63167726  0.37791603  0.03237170    -0.20400
C1585       C  0.61615947  0.38814837  0.49725631    -0.06900
C1586       C  0.61826972  0.36624846  0.46934875     0.13900
C1587       C  0.59559095  0.37061806  0.43907706    -0.23800
H1588       H  0.64489597  0.32405928  0.44784670     0.15200
H1589       H  0.62847289  0.39514886  0.05325804     0.15200
C1590       C  0.67657005  0.34941801  0.06646206    -0.23700
H1591       H  0.60148876  0.35212678  0.41900263     0.05400
H1592       H  0.59895816  0.39625162  0.42875075     0.08700
H1593       H  0.56365900  0.35324460  0.95586294     0.08700
H1594       H  0.69892754  0.37589918  0.56044406     0.08700
H1595       H  0.69511736  0.32846132  0.06585383     0.08700
H1596       H  0.65918702  0.34464474  0.08757701     0.05400
C1597       C  0.64184871  0.10758905  0.50858465    -0.20400
C1598       C  0.61187594  0.11132573  0.48989527    -0.06900
C1599       C  0.61454712  0.13566170  0.97360696     0.13900
C1600       C  0.64087829  0.15917625  0.97347531    -0.20400
C1601       C  0.66377951  0.16027787  0.48681668    -0.06900
C1602       C  0.66716274  0.13206083  0.50836134     0.13900
C1603       C  0.69636036  0.12725013  0.53248967    -0.23800
H1604       H  0.64518645  0.08584998  0.52453745     0.15200
H1605       H  0.63994572  0.18000183  0.95594294     0.15200
C1606       C  0.58607059  0.13965494  0.94855589    -0.23700
H1607       H  0.68663390  0.12399263  0.55832145     0.05400
H1608       H  0.69856122  0.14924986  0.06042442     0.08700
H1609       H  0.71080319  0.10433239  0.52543239     0.08700
H1610       H  0.56213988  0.14489558  0.96176727     0.08700
H1611       H  0.57347156  0.12199152  0.43044524     0.08700
H1612       H  0.59044515  0.16080281  0.93097254     0.05400
C1613       C  0.86709495  0.02465372  0.38420637    -0.20400
C1614       C  0.89169099  0.49355565  0.38654356    -0.06900
C1615       C  0.89073107  0.46815923  0.36164809     0.13900
C1616       C  0.86459105  0.46863531  0.33758720    -0.20400
C1617       C  0.83823040  0.99575265  0.33855986    -0.06900
C1618       C  0.84213382  0.02458144  0.35898681     0.13900
C1619       C  0.82022489  0.05529098  0.35391492    -0.23800
H1620       H  0.87044814  0.04673167  0.39987413     0.15200
H1621       H  0.86341091  0.44918660  0.31850920     0.15200
C1622       C  0.91656715  0.44017002  0.36091441    -0.23700
H1623       H  0.82712428  0.07582028  0.37158610     0.05400
H1624       H  0.79344535  0.04889654  0.35814582     0.08700
H1625       H  0.82306208  0.06479330  0.32790096     0.08700
H1626       H  0.91657103  0.42640616  0.38515903     0.08700
H1627       H  0.94199015  0.45062129  0.35659831     0.08700
H1628       H  0.91123305  0.42182615  0.34050194     0.05400
C1629       C  0.61795518  0.96496047  0.37084001    -0.20400
C1630       C  0.61839470  0.50641849  0.39213441    -0.06900
C1631       C  0.64193332  0.53281112  0.38959847     0.13900
C1632       C  0.66532141  0.53224425  0.36319215    -0.20400
C1633       C  0.66347402  0.98987103  0.33932261    -0.06900
C1634       C  0.64267933  0.96208080  0.34607864     0.13900
C1635       C  0.64754211  0.92892735  0.32832941    -0.23800
H1636       H  0.60236183  0.94366073  0.37636280     0.15200
H1637       H  0.68336667  0.55240469  0.36083871     0.15200
C1638       C  0.64213375  0.56163778  0.41424664    -0.23700
H1639       H  0.62988035  0.90956446  0.33756917     0.05400
H1640       H  0.66937925  0.43710985  0.32117461     0.08700
H1641       H  0.64313379  0.93182155  0.30095867     0.08700
H1642       H  0.64794361  0.55216623  0.43987560     0.08700
H1643       H  0.61157636  0.06360067  0.40745459     0.08700
H1644       H  0.66136405  0.58066362  0.40781417     0.05400
C1645       C  0.62086501  0.46872690  0.13208111    -0.20400
C1646       C  0.61385329  0.98855453  0.11236641    -0.06900
C1647       C  0.62923320  0.01770038  0.12530372     0.13900
C1648       C  0.65391537  0.01460992  0.15056322    -0.20400
C1649       C  0.66341465  0.98302607  0.16328278    -0.06900
C1650       C  0.64451412  0.46813819  0.15844752     0.13900
C1651       C  0.64880177  0.43600523  0.17808428    -0.23800
H1652       H  0.60703581  0.44617140  0.12602786     0.15200
H1653       H  0.66579442  0.03696242  0.16065873     0.15200
C1654       C  0.61957226  0.05203215  0.11231918    -0.23700
H1655       H  0.65736526  0.41560549  0.16105614     0.05400
H1656       H  0.62426183  0.42886113  0.18902906     0.08700
H1657       H  0.66734675  0.43815690  0.19896079     0.08700
H1658       H  0.59239504  0.05682735  0.11676857     0.08700
H1659       H  0.62442162  0.05333990  0.08496319     0.08700
H1660       H  0.63421994  0.07221189  0.12491874     0.05400
C1661       C  0.86403502  0.51972876  0.11390138    -0.20400
C1662       C  0.88727969  0.99561723  0.11145501    -0.06900
C1663       C  0.88739689  0.96950742  0.13560764     0.13900
C1664       C  0.86242621  0.96903203  0.16046349    -0.20400
C1665       C  0.83775664  0.99443830  0.16242053    -0.06900
C1666       C  0.83836400  0.51979037  0.13793176     0.13900
C1667       C  0.81261982  0.54786600  0.13765420    -0.23800
H1668       H  0.86397519  0.53879906  0.09472208     0.15200
H1669       H  0.86225167  0.94884809  0.17872145     0.15200
C1670       C  0.91352144  0.94179319  0.13500304    -0.23700
H1671       H  0.81773024  0.56657087  0.11771162     0.05400
H1672       H  0.81579141  0.06238766  0.16508902     0.08700
H1673       H  0.78705162  0.53776755  0.13301868     0.08700
H1674       H  0.93890702  0.95232481  0.13984459     0.08700
H1675       H  0.92201431  0.43201146  0.12028769     0.08700
H1676       H  0.90882111  0.92247530  0.15448567     0.05400
C1677       C  0.97537967  0.13648632  0.39011703    -0.20400
C1678       C  0.00171209  0.11277909  0.38956903    -0.06900
C1679       C  0.52218667  0.11013538  0.35801149     0.13900
C1680       C  0.51994762  0.13675164  0.33496391    -0.20400
C1681       C  0.99605114  0.16274659  0.33920211    -0.06900
C1682       C  0.97196367  0.16118624  0.36514657     0.13900
C1683       C  0.94188854  0.18446548  0.36692413    -0.23800
H1684       H  0.95667717  0.13510536  0.40969186     0.15200
H1685       H  0.53789731  0.13828081  0.31469812     0.15200
C1686       C  0.54980410  0.08426636  0.35431524    -0.23700
H1687       H  0.91851566  0.16934815  0.36615080     0.05400
H1688       H  0.94031006  0.20254891  0.34585831     0.08700
H1689       H  0.94284666  0.19893056  0.39079810     0.08700
H1690       H  0.53880627  0.05913189  0.34946281     0.08700
H1691       H  0.56520752  0.08340674  0.37764763     0.08700
H1692       H  0.56671246  0.09023017  0.33311837     0.05400
C1693       C  0.52143105  0.35990107  0.33664368    -0.20400
C1694       C  0.98891050  0.33744650  0.33728941    -0.06900
C1695       C  0.96464013  0.34007451  0.36282111     0.13900
C1696       C  0.96862949  0.36435875  0.38823706    -0.20400
C1697       C  0.99603476  0.38645219  0.38822745    -0.06900
C1698       C  0.52399407  0.38599428  0.36029261     0.13900
C1699       C  0.55244543  0.41058006  0.35765796    -0.23800
H1700       H  0.53982647  0.35782051  0.31681127     0.15200
H1701       H  0.95003737  0.36648087  0.40788156     0.15200
C1702       C  0.93435003  0.31758564  0.36282500    -0.23700
H1703       H  0.54233844  0.43617584  0.35254805     0.05400
H1704       H  0.56980961  0.40384626  0.33700648     0.08700
H1705       H  0.56712900  0.41080902  0.38144743     0.08700
H1706       H  0.94222047  0.29095459  0.36605618     0.08700
H1707       H  0.92022067  0.32037624  0.33876899     0.08700
H1708       H  0.91713562  0.32417667  0.38346056     0.05400
C1709       C  0.97299453  0.36217073  0.11153606    -0.20400
C1710       C  0.99821562  0.38653141  0.11484737    -0.06900
C1711       C  0.51991775  0.38435638  0.13988050     0.13900
C1712       C  0.51744594  0.35909768  0.16433997    -0.20400
C1713       C  0.99119900  0.33590627  0.16385912    -0.06900
C1714       C  0.96893315  0.33709432  0.13594971     0.13900
C1715       C  0.94035263  0.31260324  0.13238670    -0.23800
H1716       H  0.95598858  0.36318682  0.09006878     0.15200
H1717       H  0.53589862  0.35776155  0.18456961     0.15200
C1718       C  0.54863999  0.40875071  0.14215502    -0.23700
H1719       H  0.92464309  0.31796018  0.10974499     0.05400
H1720       H  0.92395305  0.31433346  0.15474252     0.08700
H1721       H  0.95021455  0.28656177  0.13007239     0.08700
H1722       H  0.53889164  0.43469806  0.14584764     0.08700
H1723       H  0.56339234  0.40743094  0.11866799     0.08700
H1724       H  0.56587952  0.40292396  0.16355165     0.05400
C1725       C  0.97581106  0.16287668  0.13639867    -0.20400
C1726       C  0.99950097  0.16124590  0.16287329    -0.06900
C1727       C  0.51792499  0.13385541  0.16529557     0.13900
C1728       C  0.51871044  0.10935639  0.13983414    -0.20400
C1729       C  0.99986817  0.11275160  0.11037454    -0.06900
C1730       C  0.97617133  0.13951145  0.10981184     0.13900
C1731       C  0.95068568  0.14311185  0.08170222    -0.23800
H1732       H  0.95701618  0.18279364  0.13646875     0.15200
H1733       H  0.53729573  0.08926849  0.14129260     0.15200
C1734       C  0.54450498  0.13165091  0.19255685    -0.23700
H1735       H  0.93314627  0.16454511  0.08598807     0.05400
H1736       H  0.93558978  0.11984524  0.07962297     0.08700
H1737       H  0.96369780  0.14770307  0.05762848     0.08700
H1738       H  0.54142670  0.10792689  0.20683654     0.08700
H1739       H  0.54371241  0.15297806  0.21042520     0.08700
H1740       H  0.56983922  0.13163288  0.18100454     0.05400
N1741       N  0.49702890  0.24659426  0.80014380    -0.36700
N1742       N  0.49466716  0.29856337  0.74868612    -0.57200
N1743       N  0.49438723  0.24687060  0.69718788    -0.36700
N1744       N  0.50034160  0.19493973  0.74882774    -0.57200
C1745       C  0.50494529  0.27422575  0.81835209     0.26900
C1746       C  0.50639715  0.21948237  0.81856207     0.26900
C1747       C  0.49811450  0.27456234  0.67783893     0.26900
C1748       C  0.50166373  0.21978434  0.67791069     0.26900
C1749       C  0.48875003  0.31760106  0.77620222     0.35500
C1750       C  0.48698690  0.31789328  0.72169164     0.35500
C1751       C  0.49618526  0.17503759  0.77595838     0.35500
C1752       C  0.49650699  0.17501717  0.72155001     0.35500
C1753       C  0.51977761  0.26453540  0.84857541    -0.22000
C1754       C  0.52046275  0.22993297  0.84880398    -0.22000
C1755       C  0.50727843  0.26486413  0.64571463    -0.22000
C1756       C  0.50939154  0.23034157  0.64572518    -0.22000
C1757       C  0.47717232  0.34917698  0.76664532    -0.23000
C1758       C  0.47620763  0.34940325  0.73209003    -0.23000
C1759       C  0.49001680  0.14225302  0.76586537    -0.23000
C1760       C  0.49057679  0.14217802  0.73139686    -0.23000
C1761       C  0.49641141  0.30771313  0.80959186    -0.18900
C1762       C  0.50054546  0.18561042  0.80963416    -0.18400
C1763       C  0.49959798  0.18570742  0.68787563    -0.18400
C1764       C  0.49186253  0.30823702  0.68784651    -0.18400
H1765       H  0.52840264  0.28071476  0.86873754     0.14500
H1766       H  0.52987592  0.21423124  0.86906477     0.14500
H1767       H  0.51160024  0.28094837  0.62430875     0.14500
H1768       H  0.51569460  0.21478242  0.62433582     0.14500
H1769       H  0.47061886  0.37003523  0.78286155     0.12800
H1770       H  0.46866947  0.37040577  0.71639028     0.12800
H1771       H  0.48606445  0.12052425  0.78163680     0.12800
H1772       H  0.48701981  0.12041945  0.71542165     0.12800
H1773       H  0.48215856  0.24615089  0.77849235     0.26100
H1774       H  0.48414006  0.24624524  0.72102133     0.26100
O1775       O  0.99742323  0.09479117  0.55599748    -0.80200
O1776       O  0.99838063  0.40221020  0.55682596    -0.81800
O1777       O  0.94656426  0.99751816  0.59820225    -0.78800
O1778       O  0.55342441  0.00051654  0.59595610    -0.77200
O1779       O  0.59690253  0.50162430  0.55913389    -0.79000
O1780       O  0.90576057  0.49905283  0.55601665    -0.79900
O1781       O  0.99993799  0.44343197  0.59698265    -0.81200
O1782       O  0.99918572  0.05441740  0.59700455    -0.81500
Eu1783     Eu  0.00147405  0.49840154  0.56917217     2.39200
O1784       O  0.53664054  0.46502657  0.53492929    -0.89000
O1785       O  0.96642934  0.03363963  0.53572574    -0.92600
C1786       C  0.99726152  0.08526787  0.58692357     1.02100
C1787       C  0.99847985  0.41239957  0.58768054     1.01900
C1788       C  0.91547954  0.99863425  0.58854213     1.01800
C1789       C  0.58443580  0.00281304  0.58687568     0.99700
H1790       H  0.95293545  0.45079137  0.54874990     0.29400
O1791       O  0.96711055  0.46452660  0.53488494    -1.01400
H1792       H  0.54672198  0.04780668  0.54695917     0.29500
O1793       O  0.53294686  0.03334704  0.53310049    -1.03900
O1794       O  0.00174214  0.40144344  0.94776065    -0.81200
O1795       O  0.99701445  0.09237842  0.94192228    -0.80700
O1796       O  0.90577407  0.44575656  0.00244972    -0.79100
O1797       O  0.59614904  0.43848946  0.00347919    -0.82500
O1798       O  0.59802508  0.05154238  0.00010108    -0.80300
O1799       O  0.90501989  0.05384706  0.99621673    -0.79000
O1800       O  0.94811679  0.49423339  0.90652902    -0.80500
O1801       O  0.56003462  0.49609532  0.90497850    -0.82400
O1802       O  0.90743078  0.49613893  0.94698696    -0.79200
O1803       O  0.60030477  0.49580480  0.94661410    -0.81800
O1804       O  0.94604522  0.40430271  0.00027355    -0.77600
O1805       O  0.94579586  0.09428206  0.99467924    -0.77600
O1806       O  0.55770735  0.09297458  0.99772294    -0.77300
O1807       O  0.55415743  0.39919923  0.00178858    -0.80800
O1808       O  0.00442505  0.44173870  0.90689216    -0.80200
O1809       O  0.99926632  0.05082420  0.90214881    -0.78500
Eu1810     Eu  0.00278920  0.43044086  0.00251775     2.39800
Eu1811     Eu  0.00068317  0.06605165  0.99792761     2.39600
Eu1812     Eu  0.93515298  0.49940626  0.00225034     2.38400
Eu1813     Eu  0.57110651  0.49549899  0.00078589     2.39900
Eu1814     Eu  0.00395278  0.49799278  0.93377950     2.39800
O1815       O  0.53526654  0.03122317  0.96619847    -0.92900
O1816       O  0.96930878  0.46513601  0.96817537    -0.91800
C1817       C  0.00286259  0.41080112  0.91673038     1.02200
C1818       C  0.99726198  0.08198363  0.91116576     1.01000
C1819       C  0.91507154  0.41471291  0.00115728     1.00400
C1820       C  0.58529905  0.40791135  0.00314028     1.02400
C1821       C  0.58870220  0.08273169  0.99818350     1.01300
C1822       C  0.91486022  0.08471097  0.99462236     1.00100
C1823       C  0.91718896  0.49396466  0.91625579     1.00200
C1824       C  0.59092506  0.49632342  0.91549379     1.02800
H1825       H  0.95259481  0.04416479  0.94993958     0.30200
O1826       O  0.96680680  0.03072459  0.96457930    -1.05100
H1827       H  0.55064951  0.44704183  0.95259583     0.32200
O1828       O  0.53667900  0.46158544  0.96615989    -1.07600
N1829       N  0.75031500  0.00366760  0.69911716    -0.36700
N1830       N  0.69851492  0.00722706  0.75053442    -0.57200
N1831       N  0.74995829  0.00091903  0.80221307    -0.36700
N1832       N  0.80173958  0.99334486  0.75080860    -0.57200
C1833       C  0.72240761  0.00041457  0.67952462     0.26900
C1834       C  0.77744406  0.99739410  0.67968288     0.26900
C1835       C  0.72192227  0.99777396  0.82094906     0.26900
C1836       C  0.77616804  0.98917980  0.82085283     0.26900
C1837       C  0.67890902  0.01256894  0.72311022     0.35500
C1838       C  0.67934568  0.01428550  0.77752398     0.35500
C1839       C  0.82203622  0.99900758  0.72435106     0.35500
C1840       C  0.82157356  0.99500744  0.77857676     0.35500
C1841       C  0.73205126  0.99248327  0.64703762    -0.22000
C1842       C  0.76672129  0.99082363  0.64709774    -0.22000
C1843       C  0.73052970  0.98428412  0.85201960    -0.22000
C1844       C  0.76475266  0.97876779  0.85191164    -0.22000
C1845       C  0.64703301  0.02304788  0.73272317    -0.23000
C1846       C  0.64740486  0.02443539  0.76719501    -0.23000
C1847       C  0.85492825  0.00357172  0.73538084    -0.23000
C1848       C  0.85465486  0.00094191  0.76967236    -0.23000
C1849       C  0.68859248  0.00602383  0.68961230    -0.18400
C1850       C  0.81168015  0.99895012  0.69021175    -0.18400
C1851       C  0.81046646  0.99082521  0.81190949    -0.18400
C1852       C  0.68889139  0.00749952  0.81116433    -0.18400
H1853       H  0.71583928  0.98874777  0.62534926     0.14500
H1854       H  0.78225990  0.98543402  0.62554954     0.14500
H1855       H  0.71392014  0.97907812  0.87272513     0.14500
H1856       H  0.77968005  0.96886940  0.87259722     0.14500
H1857       H  0.62560406  0.02865959  0.71660119     0.12800
H1858       H  0.62621998  0.03090122  0.78289429     0.12800
H1859       H  0.87687447  0.00855637  0.72034325     0.12800
H1860       H  0.87633314  0.00357281  0.78614682     0.12800
H1861       H  0.75111852  0.01285485  0.72344896     0.26100
H1862       H  0.75173833  0.01402638  0.77978521     0.26100
N1863       N  0.75403326  0.19739567  0.99467216    -0.36700
N1864       N  0.80418247  0.25160835  0.99280986    -0.57200
N1865       N  0.75091942  0.30010825  0.00256581    -0.36700
N1866       N  0.70086698  0.24567563  0.00095349    -0.57200
C1867       C  0.78160112  0.18123395  0.98309795     0.26900
C1868       C  0.72704447  0.17795113  0.98724156     0.26900
C1869       C  0.77678471  0.32104379  0.99574806     0.26900
C1870       C  0.72201246  0.31801506  0.99910980     0.26900
C1871       C  0.82471747  0.22458205  0.99627283     0.35500
C1872       C  0.82310239  0.27892815  0.99982386     0.35500
C1873       C  0.68272760  0.21746327  0.00595437     0.35500
C1874       C  0.68084281  0.27182328  0.00950039     0.35500
C1875       C  0.77211273  0.15122939  0.96803362    -0.22000
C1876       C  0.73760770  0.14924813  0.97049089    -0.22000
C1877       C  0.76416643  0.35280200  0.98839254    -0.22000
C1878       C  0.72962538  0.35090139  0.99046856    -0.22000
C1879       C  0.85693759  0.23475967  0.00518191    -0.23000
C1880       C  0.85593084  0.26924878  0.00733479    -0.23000
C1881       C  0.65105295  0.22575733  0.01782367    -0.23000
C1882       C  0.64978553  0.26021303  0.01987242    -0.23000
C1883       C  0.81525541  0.19112295  0.98905751    -0.18400
C1884       C  0.69351267  0.18466677  0.99711381    -0.18400
C1885       C  0.68910487  0.30609134  0.00551257    -0.18400
C1886       C  0.81149352  0.31256258  0.99762137    -0.18400
H1887       H  0.78847163  0.13245165  0.95695379     0.14500
H1888       H  0.72213430  0.12870204  0.96162835     0.14500
H1889       H  0.77836265  0.37508627  0.98235288     0.14500
H1890       H  0.71213056  0.37154329  0.98642388     0.14500
H1891       H  0.87897013  0.21903399  0.00923223     0.12800
H1892       H  0.87696161  0.28536549  0.01352493     0.12800
H1893       H  0.63073851  0.20884428  0.02375554     0.12800
H1894       H  0.62829522  0.27506102  0.02771304     0.12800
H1895       H  0.75436349  0.21808902  0.01067662     0.26100
H1896       H  0.75289342  0.27602039  0.01243154     0.26100
C1897       C  0.88724015  0.36355429  0.47568672    -0.20400
C1898       C  0.88799911  0.38937023  0.00044676    -0.06900
C1899       C  0.86536416  0.38579503  0.02739551     0.13900
C1900       C  0.84047348  0.36081635  0.02573378    -0.20400
C1901       C  0.83701148  0.34009092  0.99734248    -0.06900
C1902       C  0.86317477  0.33790331  0.47420939     0.13900
C1903       C  0.86215589  0.31495776  0.44411877    -0.23800
H1904       H  0.90543258  0.36587742  0.45572568     0.15200
H1905       H  0.82374971  0.35722719  0.04674626     0.15200
C1906       C  0.86788426  0.40780922  0.05817653    -0.23700
H1907       H  0.88088979  0.32239349  0.42527357     0.05400
H1908       H  0.82720631  0.32973506  0.92786591     0.08700
H1909       H  0.86788017  0.28869173  0.45163583     0.08700
H1910       H  0.89330899  0.40512929  0.06977386     0.08700
H1911       H  0.84391626  0.40205696  0.57570159     0.08700
H1912       H  0.86345962  0.43451091  0.05121024     0.05400
C1913       C  0.88967941  0.13470235  0.96645645    -0.20400
C1914       C  0.88887980  0.11133617  0.99284994    -0.06900
C1915       C  0.85979908  0.11168977  0.51526702     0.13900
C1916       C  0.83552294  0.13715284  0.51190753    -0.20400
C1917       C  0.84144904  0.16430785  0.98948460    -0.06900
C1918       C  0.86588181  0.16091344  0.96414798     0.13900
C1919       C  0.86714617  0.18408465  0.93430305    -0.23800
H1920       H  0.90859454  0.13212347  0.94724051     0.15200
H1921       H  0.81514268  0.13891139  0.52975055     0.15200
C1922       C  0.85654548  0.08665204  0.54334441    -0.23700
H1923       H  0.86470234  0.16910461  0.91086781     0.05400
H1924       H  0.86619554  0.20796604  0.44046317     0.08700
H1925       H  0.84667602  0.20316371  0.93402863     0.08700
H1926       H  0.87985395  0.08667112  0.55885453     0.08700
H1927       H  0.85659688  0.06499215  0.03751343     0.08700
H1928       H  0.83501539  0.09273127  0.55992743     0.05400
C1929       C  0.63935959  0.33327894  0.97871487    -0.20400
C1930       C  0.66119468  0.33106665  0.00655961    -0.06900
C1931       C  0.66207841  0.35767725  0.52503585     0.13900
C1932       C  0.63830586  0.38391429  0.52454294    -0.20400
C1933       C  0.61045522  0.38067900  0.00416488    -0.06900
C1934       C  0.61343708  0.35737295  0.97753775     0.13900
C1935       C  0.58977762  0.35828363  0.94766999    -0.23800
H1936       H  0.64271463  0.31606772  0.95785315     0.15200
H1937       H  0.63627612  0.40048781  0.54609879     0.15200
C1938       C  0.68335487  0.35316859  0.55629256    -0.23700
H1939       H  0.59652445  0.33901242  0.92862140     0.05400
H1940       H  0.59067703  0.38337107  0.93556660     0.08700
H1941       H  0.56888400  0.36715500  0.44613710     0.08700
H1942       H  0.69034956  0.37312088  0.07145071     0.08700
H1943       H  0.70037316  0.33099942  0.55507509     0.08700
H1944       H  0.66668905  0.34971533  0.57822892     0.05400
C1945       C  0.64354476  0.10558493  0.01856982    -0.20400
C1946       C  0.61568631  0.10854629  0.99668196    -0.06900
C1947       C  0.60838801  0.13952112  0.46830738     0.13900
C1948       C  0.63464717  0.16310414  0.46654458    -0.20400
C1949       C  0.66805386  0.15692344  0.99627224    -0.06900
C1950       C  0.66943752  0.12959894  0.01901033     0.13900
C1951       C  0.69750005  0.12626462  0.04460547    -0.23800
H1952       H  0.64463923  0.08476159  0.03606104     0.15200
H1953       H  0.63213975  0.18442742  0.44974749     0.15200
C1954       C  0.57757400  0.14456886  0.44636098    -0.23700
H1955       H  0.69375952  0.10435406  0.06140371     0.05400
H1956       H  0.71378083  0.14881645  0.53333535     0.08700
H1957       H  0.72197291  0.12264698  0.03191979     0.08700
H1958       H  0.55512874  0.14916848  0.46212583     0.08700
H1959       H  0.58350023  0.11634561  0.93350375     0.08700
H1960       H  0.58018486  0.16658381  0.42946806     0.05400
C1961       C  0.86639350  0.01921903  0.88425769    -0.20400
C1962       C  0.89077442  0.49170613  0.89017230    -0.06900
C1963       C  0.88697782  0.46284050  0.86976465     0.13900
C1964       C  0.86142661  0.46241560  0.84501942    -0.20400
C1965       C  0.83624919  0.99070090  0.83929476    -0.06900
C1966       C  0.84016443  0.01896930  0.86050523     0.13900
C1967       C  0.81732727  0.04932331  0.85750968    -0.23800
H1968       H  0.86954054  0.04080781  0.90063922     0.15200
H1969       H  0.85814208  0.44038668  0.82929397     0.15200
C1970       C  0.90956489  0.43249383  0.87438443    -0.23700
H1971       H  0.82512974  0.06976756  0.87489235     0.05400
H1972       H  0.79111706  0.04248698  0.86377798     0.08700
H1973       H  0.81797934  0.05929922  0.83149868     0.08700
H1974       H  0.90742858  0.42282067  0.90042288     0.08700
H1975       H  0.93613452  0.43940501  0.86967760     0.08700
H1976       H  0.90276494  0.41188541  0.85677354     0.05400
C1977       C  0.61597406  0.97765954  0.86423494    -0.20400
C1978       C  0.61747971  0.49737761  0.88981892    -0.06900
C1979       C  0.63804604  0.52587365  0.88560428     0.13900
C1980       C  0.66172033  0.52618732  0.85955979    -0.20400
C1981       C  0.66207193  0.00629119  0.83698946    -0.06900
C1982       C  0.64043183  0.97840207  0.83910902     0.13900
C1983       C  0.64399785  0.94885937  0.81560476    -0.23800
H1984       H  0.59935921  0.95633724  0.86586664     0.15200
H1985       H  0.67752009  0.54798944  0.85606061     0.15200
C1986       C  0.63487103  0.55588802  0.90844817    -0.23700
H1987       H  0.62593030  0.92859597  0.82156298     0.05400
H1988       H  0.67608487  0.42949993  0.82306171     0.08700
H1989       H  0.63920182  0.95687714  0.78931131     0.08700
H1990       H  0.64155478  0.54858820  0.93458108     0.08700
H1991       H  0.61425073  0.05808022  0.92950491     0.08700
H1992       H  0.65171937  0.57664753  0.90085622     0.05400
C1993       C  0.61975383  0.47007509  0.63294339    -0.20400
C1994       C  0.61032446  0.00480115  0.61367742    -0.06900
C1995       C  0.63116340  0.03318314  0.61777174     0.13900
C1996       C  0.65676698  0.03270884  0.64240099    -0.20400
C1997       C  0.66146631  0.00479308  0.66348805    -0.06900
C1998       C  0.64556375  0.46787802  0.65715131     0.13900
C1999       C  0.65068691  0.43483452  0.67503865    -0.23800
H2000       H  0.60562830  0.44782377  0.62653834     0.15200
H2001       H  0.67296076  0.05433657  0.64557081     0.15200
C2002       C  0.62567351  0.06428639  0.59694999    -0.23700
H2003       H  0.65572841  0.41468854  0.65638154     0.05400
H2004       H  0.62749010  0.42850615  0.68897153     0.08700
H2005       H  0.67202215  0.43523734  0.69320369     0.08700
H2006       H  0.59997704  0.07441133  0.60127301     0.08700
H2007       H  0.62827886  0.05786242  0.57008475     0.08700
H2008       H  0.64414205  0.08423521  0.60327325     0.05400
C2009       C  0.86489182  0.52112259  0.61368968    -0.20400
C2010       C  0.88952451  0.99830755  0.61499563    -0.06900
C2011       C  0.88645998  0.97124015  0.63775804     0.13900
C2012       C  0.86029217  0.97175330  0.66128801    -0.20400
C2013       C  0.83838901  0.99953594  0.66402157    -0.06900
C2014       C  0.84095607  0.52260886  0.63924441     0.13900
C2015       C  0.81663135  0.55190789  0.63896103    -0.23800
H2016       H  0.86447182  0.54007506  0.59438546     0.15200
H2017       H  0.85725056  0.95065979  0.67817808     0.15200
C2018       C  0.91069485  0.94187014  0.63743563    -0.23700
H2019       H  0.83096402  0.57579515  0.63906199     0.05400
H2020       H  0.80501452  0.05932848  0.66712729     0.08700
H2021       H  0.80077289  0.55092876  0.61584817     0.08700
H2022       H  0.93652870  0.95063877  0.64348719     0.08700
H2023       H  0.91947198  0.43134560  0.61710030     0.08700
H2024       H  0.90396997  0.92251082  0.65625428     0.05400
C2025       C  0.96843083  0.13191214  0.88645398    -0.20400
C2026       C  0.99434846  0.10779567  0.88442421    -0.06900
C2027       C  0.52837194  0.11050249  0.86191013     0.13900
C2028       C  0.52743345  0.13611301  0.83770381    -0.20400
C2029       C  0.98773945  0.15905886  0.83553225    -0.06900
C2030       C  0.96467139  0.15734448  0.86220065     0.13900
C2031       C  0.93579513  0.18196274  0.86477960    -0.23800
H2032       H  0.95088952  0.13064004  0.90700466     0.15200
H2033       H  0.54696255  0.13733107  0.81893585     0.15200
C2034       C  0.55633116  0.08469513  0.86097064    -0.23700
H2035       H  0.91933026  0.17574705  0.88608923     0.05400
H2036       H  0.92030308  0.18127176  0.84141606     0.08700
H2037       H  0.94531547  0.20781379  0.86880720     0.08700
H2038       H  0.54579308  0.05942999  0.85578738     0.08700
H2039       H  0.56984373  0.08418227  0.88542204     0.08700
H2040       H  0.57486963  0.09027322  0.84107297     0.05400
C2041       C  0.52246353  0.35839724  0.83555179    -0.20400
C2042       C  0.99277436  0.33409002  0.84022513    -0.06900
C2043       C  0.97030565  0.33573636  0.86754379     0.13900
C2044       C  0.97501805  0.36027774  0.89263382    -0.20400
C2045       C  0.00086930  0.38409003  0.89056415    -0.06900
C2046       C  0.52462495  0.38355057  0.86024436     0.13900
C2047       C  0.55315400  0.40809293  0.85888047    -0.23800
H2048       H  0.54069246  0.35757359  0.81547842     0.15200
H2049       H  0.95764786  0.36165467  0.91342534     0.15200
C2050       C  0.94053616  0.31256783  0.86962650    -0.23700
H2051       H  0.57033559  0.40265373  0.83768794     0.05400
H2052       H  0.56794961  0.40636777  0.88260016     0.08700
H2053       H  0.54333973  0.43406940  0.85551611     0.08700
H2054       H  0.94906348  0.28606209  0.87186987     0.08700
H2055       H  0.92453635  0.31539460  0.84675283     0.08700
H2056       H  0.92479875  0.31831365  0.89180690     0.05400
C2057       C  0.96977625  0.36314300  0.61227463    -0.20400
C2058       C  0.99577149  0.38678119  0.61444280    -0.06900
C2059       C  0.52581151  0.37775945  0.63267614     0.13900
C2060       C  0.52286361  0.35308751  0.65770292    -0.20400
C2061       C  0.98793047  0.33775970  0.66516179    -0.06900
C2062       C  0.96509033  0.33914233  0.63760550     0.13900
C2063       C  0.93513475  0.31623658  0.63445830    -0.23800
H2064       H  0.95233806  0.36405065  0.59112897     0.15200
H2065       H  0.54403859  0.34770605  0.67429821     0.15200
C2066       C  0.55831756  0.39651491  0.62939290    -0.23700
H2067       H  0.91176568  0.33162887  0.63217491     0.05400
H2068       H  0.93218312  0.29948353  0.65641945     0.08700
H2069       H  0.93766569  0.30041061  0.61161838     0.08700
H2070       H  0.55348888  0.42367120  0.63372692     0.08700
H2071       H  0.56863999  0.39278125  0.60382528     0.08700
H2072       H  0.57755961  0.38786980  0.64797472     0.05400
C2073       C  0.96474608  0.15937039  0.63769253    -0.20400
C2074       C  0.98997609  0.16223158  0.66241093    -0.06900
C2075       C  0.53004711  0.14453571  0.65011192     0.13900
C2076       C  0.52871591  0.12025987  0.62454808    -0.20400
C2077       C  0.99426189  0.11186406  0.61262113    -0.06900
C2078       C  0.96669528  0.13461188  0.61259109     0.13900
C2079       C  0.93878899  0.13210807  0.58676972    -0.23800
H2080       H  0.94341537  0.17653472  0.63817180     0.15200
H2081       H  0.55170540  0.10830741  0.61606526     0.15200
C2082       C  0.56358041  0.15425848  0.66508977    -0.23700
H2083       H  0.91828980  0.15061996  0.59149295     0.05400
H2084       H  0.92785418  0.10653703  0.58753328     0.08700
H2085       H  0.94871565  0.13701650  0.56131186     0.08700
H2086       H  0.56383930  0.14906177  0.69247227     0.08700
H2087       H  0.56799260  0.18146685  0.66094237     0.08700
H2088       H  0.58466332  0.13998244  0.65354059     0.05400
N2089       N  0.49089324  0.74842457  0.29921320    -0.36700
N2090       N  0.48953507  0.79931711  0.24752226    -0.57200
N2091       N  0.49231714  0.74720437  0.19685759    -0.36700
N2092       N  0.49540160  0.69633728  0.24886293    -0.57200
C2093       C  0.49906496  0.77638551  0.31671568     0.26900
C2094       C  0.50153668  0.72175567  0.31755679     0.26900
C2095       C  0.49851504  0.77475371  0.17807961     0.26900
C2096       C  0.50206013  0.72003341  0.17885214     0.26900
C2097       C  0.48132467  0.81835140  0.27437933     0.35500
C2098       C  0.48205098  0.81784477  0.22002236     0.35500
C2099       C  0.48910854  0.67727397  0.27610419     0.35500
C2100       C  0.49072729  0.67641306  0.22175360     0.35500
C2101       C  0.51552625  0.76742166  0.34631120    -0.22000
C2102       C  0.51700835  0.73282311  0.34687945    -0.22000
C2103       C  0.51224022  0.76498563  0.14766841    -0.22000
C2104       C  0.51444549  0.73039656  0.14814339    -0.22000
C2105       C  0.46831439  0.84908682  0.26389432    -0.23000
C2106       C  0.46897674  0.84883751  0.22936713    -0.23000
C2107       C  0.48021611  0.64505677  0.26629389    -0.23000
C2108       C  0.48141994  0.64446089  0.23176863    -0.23000
C2109       C  0.48890892  0.80937171  0.30796396    -0.18900
C2110       C  0.49500574  0.68784688  0.30951049    -0.18400
C2111       C  0.49747485  0.68615555  0.18841341    -0.18400
C2112       C  0.48977796  0.80815442  0.18687376    -0.18400
H2113       H  0.52475188  0.78404976  0.36582837     0.14500
H2114       H  0.52760469  0.71753004  0.36688018     0.14500
H2115       H  0.51933783  0.78105696  0.12704177     0.14500
H2116       H  0.52360397  0.71464001  0.12796481     0.14500
H2117       H  0.45998288  0.86979634  0.27947159     0.12800
H2118       H  0.46121118  0.86926280  0.21302072     0.12800
H2119       H  0.47437027  0.62399130  0.28234236     0.12800
H2120       H  0.47660147  0.62287119  0.21589636     0.12800
H2121       H  0.47499626  0.74745936  0.27825512     0.26100
H2122       H  0.47846339  0.74673823  0.21885871     0.26100
O2123       O  0.99989611  0.59462114  0.05775595    -0.80200
O2124       O  0.99881359  0.90289095  0.05719310    -0.81800
O2125       O  0.94816920  0.49754831  0.09879030    -0.78800
O2126       O  0.55790042  0.49673258  0.09582901    -0.77200
O2127       O  0.59735390  0.99202907  0.05534310    -0.79000
O2128       O  0.90337256  0.99826059  0.05393226    -0.79900
O2129       O  0.00061664  0.94448054  0.09699577    -0.81200
O2130       O  0.00112959  0.55431851  0.09884302    -0.81500
Eu2131     Eu  0.00040966  0.99915943  0.06786934     2.39200
O2132       O  0.53447921  0.96299927  0.03341868    -0.89000
O2133       O  0.96882623  0.53388286  0.03654939    -0.92600
C2134       C  0.99950327  0.58516319  0.08881738     1.02100
C2135       C  0.99926116  0.91330005  0.08797576     1.01900
C2136       C  0.91709845  0.49796955  0.08890409     1.01800
C2137       C  0.58900015  0.49737941  0.08664222     0.99700
H2138       H  0.95210904  0.95035054  0.04808580     0.29400
O2139       O  0.96626434  0.96411125  0.03422974    -1.01400
H2140       H  0.55155572  0.54539625  0.04768096     0.29500
O2141       O  0.53730138  0.53136625  0.03380653    -1.03900
O2142       O  0.99592086  0.90416301  0.44501241    -0.81200
O2143       O  0.00034642  0.59457193  0.44589343    -0.80700
O2144       O  0.90438648  0.94469646  0.49906666    -0.79100
O2145       O  0.59495653  0.94311891  0.50400097    -0.82500
O2146       O  0.59706866  0.55685784  0.50380194    -0.80300
O2147       O  0.90469502  0.55358275  0.49879742    -0.79000
O2148       O  0.94530476  0.99843092  0.40577335    -0.80500
O2149       O  0.55656301  0.99517524  0.40464716    -0.82400
O2150       O  0.90451281  0.99879884  0.44619897    -0.79200
O2151       O  0.59670708  0.99719944  0.44636621    -0.81800
O2152       O  0.94475316  0.90334213  0.49764419    -0.77600
O2153       O  0.94498712  0.59448463  0.49830207    -0.77600
O2154       O  0.55514565  0.59651039  0.50043166    -0.77300
O2155       O  0.55428205  0.90253698  0.50134977    -0.80800
O2156       O  0.99803019  0.94511654  0.40477435    -0.80200
O2157       O  0.00212534  0.55367012  0.40535439    -0.78500
Eu2158     Eu  0.99991034  0.93065962  0.50090212     2.39800
Eu2159     Eu  0.00091735  0.56692960  0.50118372     2.39600
Eu2160     Eu  0.93234904  0.99948141  0.50149015     2.38400
Eu2161     Eu  0.56762044  0.99865684  0.50032929     2.39900
Eu2162     Eu  0.00119747  0.99958016  0.43293776     2.39800
O2163       O  0.53722672  0.53450541  0.46739527    -0.92900
O2164       O  0.96686690  0.96623925  0.46717796    -0.91800
C2165       C  0.99605696  0.91421821  0.41417888     1.02200
C2166       C  0.00120891  0.58472202  0.41498739     1.01000
C2167       C  0.91387881  0.91364198  0.49769884     1.00400
C2168       C  0.58518606  0.91222373  0.50325841     1.02400
C2169       C  0.58644139  0.58761994  0.50193856     1.01300
C2170       C  0.91405055  0.58455106  0.49796598     1.00100
C2171       C  0.91436900  0.99810846  0.41543827     1.00200
C2172       C  0.58746116  0.99582986  0.41527336     1.02800
H2173       H  0.95365249  0.54593064  0.45191481     0.30200
O2174       O  0.96770095  0.53222747  0.46644380    -1.05100
H2175       H  0.54831063  0.94904119  0.45219413     0.32200
O2176       O  0.53416324  0.96341620  0.46571672    -1.07600
N2177       N  0.75132925  0.49693893  0.20028645    -0.36700
N2178       N  0.70038957  0.50228208  0.25241317    -0.57200
N2179       N  0.75255401  0.50086287  0.30257703    -0.36700
N2180       N  0.80361610  0.49346350  0.25042289    -0.57200
C2181       C  0.72315122  0.48947766  0.18255848     0.26900
C2182       C  0.77805554  0.48772694  0.18142064     0.26900
C2183       C  0.72509621  0.49565249  0.32166614     0.26900
C2184       C  0.77959036  0.48955973  0.32022133     0.26900
C2185       C  0.68061332  0.50685755  0.22501306     0.35500
C2186       C  0.68161111  0.51070690  0.27930476     0.35500
C2187       C  0.82252538  0.50016062  0.22324973     0.35500
C2188       C  0.82311112  0.50016812  0.27753783     0.35500
C2189       C  0.73207959  0.47520784  0.15203407    -0.22000
C2190       C  0.76678374  0.47405565  0.15135767    -0.22000
C2191       C  0.73477644  0.48083859  0.35178931    -0.22000
C2192       C  0.76923048  0.47677705  0.35078263    -0.22000
C2193       C  0.64895437  0.51811759  0.23450995    -0.23000
C2194       C  0.64966643  0.52079341  0.26896009    -0.23000
C2195       C  0.85415879  0.51112536  0.23314193    -0.23000
C2196       C  0.85456697  0.51102141  0.26763268    -0.23000
C2197       C  0.68986519  0.49801696  0.19196747    -0.18400
C2198       C  0.81212798  0.49418909  0.18978668    -0.18400
C2199       C  0.81345520  0.49435790  0.31098037    -0.18400
C2200       C  0.69179014  0.50520409  0.31296911    -0.18400
H2201       H  0.71535216  0.46716239  0.13199109     0.14500
H2202       H  0.78199037  0.46501495  0.13077966     0.14500
H2203       H  0.71872352  0.47388699  0.37241588     0.14500
H2204       H  0.78500978  0.46656702  0.37067903     0.14500
H2205       H  0.62736678  0.52306842  0.21838876     0.12800
H2206       H  0.62870393  0.52795273  0.28466580     0.12800
H2207       H  0.87484286  0.51820611  0.21720873     0.12800
H2208       H  0.87562189  0.51801085  0.28358654     0.12800
H2209       H  0.75230460  0.51156326  0.22193581     0.26100
H2210       H  0.75336730  0.51519386  0.28074793     0.26100
N2211       N  0.75079242  0.69899248  0.49637985    -0.36700
N2212       N  0.80281086  0.74952003  0.49249453    -0.57200
N2213       N  0.75181680  0.80157727  0.50220806    -0.36700
N2214       N  0.69974502  0.75084264  0.50304500    -0.57200
C2215       C  0.77715327  0.68024549  0.48567783     0.26900
C2216       C  0.72249850  0.68099336  0.49074862     0.26900
C2217       C  0.77845103  0.82019125  0.49281632     0.26900
C2218       C  0.72392985  0.82100116  0.49833765     0.26900
C2219       C  0.82223530  0.72180064  0.49680796     0.35500
C2220       C  0.82269093  0.77614796  0.49924340     0.35500
C2221       C  0.68106861  0.72358995  0.51028243     0.35500
C2222       C  0.68166019  0.77792442  0.51292388     0.35500
C2223       C  0.76550846  0.64991816  0.47303688    -0.22000
C2224       C  0.73096955  0.65042834  0.47613942    -0.22000
C2225       C  0.76741816  0.85197926  0.48321833    -0.22000
C2226       C  0.73297571  0.85249349  0.48671776    -0.22000
C2227       C  0.85465542  0.73086299  0.50621891    -0.23000
C2228       C  0.85496795  0.76537130  0.50763524    -0.23000
C2229       C  0.65100142  0.73340747  0.52486797    -0.23000
C2230       C  0.65133120  0.76790555  0.52642963    -0.23000
C2231       C  0.81151286  0.68864547  0.49005876    -0.18400
C2232       C  0.68979594  0.69023624  0.50148963    -0.18400
C2233       C  0.69087880  0.81157764  0.50703792    -0.18400
C2234       C  0.81260493  0.81004091  0.49526593    -0.18400
H2235       H  0.78042316  0.62928788  0.46326797     0.14500
H2236       H  0.71411799  0.63021973  0.46927396     0.14500
H2237       H  0.78264820  0.87280201  0.47496395     0.14500
H2238       H  0.71654969  0.87378502  0.48170773     0.14500
H2239       H  0.87595717  0.71439574  0.51115212     0.12800
H2240       H  0.87653057  0.78077049  0.51382128     0.12800
H2241       H  0.63076383  0.71742176  0.53311177     0.12800
H2242       H  0.63141189  0.78383419  0.53605506     0.12800
H2243       H  0.75247515  0.72065722  0.51090298     0.26100
H2244       H  0.75305886  0.77841145  0.51422136     0.26100
C2245       C  0.88778147  0.86083430  0.97014746    -0.20400
C2246       C  0.88741847  0.88786110  0.49667555    -0.06900
C2247       C  0.86259684  0.88627452  0.52174123     0.13900
C2248       C  0.83914351  0.86016936  0.52086917    -0.20400
C2249       C  0.83883607  0.83654157  0.49468879    -0.06900
C2250       C  0.86274392  0.83593796  0.96826473     0.13900
C2251       C  0.86222955  0.81186700  0.93898855    -0.23800
H2252       H  0.90703168  0.86180422  0.95111741     0.15200
H2253       H  0.82058193  0.85832835  0.54054773     0.15200
C2254       C  0.86126824  0.91155453  0.54990712    -0.23700
H2255       H  0.88258254  0.81734939  0.92098564     0.05400
H2256       H  0.84136524  0.79841411  0.43799833     0.08700
H2257       H  0.86576219  0.78563356  0.94781121     0.08700
H2258       H  0.88584813  0.91179458  0.56331764     0.08700
H2259       H  0.84074485  0.90386333  0.06657893     0.08700
H2260       H  0.85569500  0.93698128  0.53972489     0.05400
C2261       C  0.88869153  0.63453419  0.47003637    -0.20400
C2262       C  0.88726792  0.61053025  0.49575392    -0.06900
C2263       C  0.86253187  0.61056885  0.01838807     0.13900
C2264       C  0.83801762  0.63587920  0.01604447    -0.20400
C2265       C  0.83713609  0.66106015  0.48988422    -0.06900
C2266       C  0.86356285  0.65932252  0.46629686     0.13900
C2267       C  0.86578501  0.68277182  0.43672207    -0.23800
H2268       H  0.90913173  0.63343825  0.45222320     0.15200
H2269       H  0.81739785  0.63646070  0.03368670     0.15200
C2270       C  0.85950698  0.58439870  0.04538662    -0.23700
H2271       H  0.86640150  0.66784589  0.41314026     0.05400
H2272       H  0.89135426  0.69916628  0.94092615     0.08700
H2273       H  0.84408197  0.70036818  0.43483087     0.08700
H2274       H  0.88273840  0.58410663  0.06111048     0.08700
H2275       H  0.85355117  0.56074845  0.53574591     0.08700
H2276       H  0.83778268  0.58954030  0.06200189     0.05400
C2277       C  0.63926519  0.83647016  0.48163879    -0.20400
C2278       C  0.66383385  0.83767425  0.50719956    -0.06900
C2279       C  0.66260218  0.85773796  0.02330401     0.13900
C2280       C  0.63750213  0.88283198  0.02235873    -0.20400
C2281       C  0.61151923  0.88594975  0.50441970    -0.06900
C2282       C  0.61287223  0.86003411  0.48013613     0.13900
C2283       C  0.58715645  0.85763368  0.45207053    -0.23800
H2284       H  0.64078944  0.81683246  0.46278636     0.15200
H2285       H  0.63723455  0.90223858  0.04151684     0.15200
C2286       C  0.68800535  0.85751633  0.05171228    -0.23700
H2287       H  0.59321515  0.83691604  0.43434556     0.05400
H2288       H  0.58634027  0.88151182  0.43763451     0.08700
H2289       H  0.56056310  0.85283887  0.95575777     0.08700
H2290       H  0.69986801  0.88962245  0.56031150     0.08700
H2291       H  0.68665892  0.83328751  0.06544830     0.08700
H2292       H  0.68322258  0.87817545  0.06990094     0.05400
C2293       C  0.63998957  0.61169237  0.52360024    -0.20400
C2294       C  0.61212343  0.61458130  0.50176938    -0.06900
C2295       C  0.61706485  0.63084888  0.96295399     0.13900
C2296       C  0.64190738  0.65587117  0.96265099    -0.20400
C2297       C  0.66315992  0.66397980  0.50262756    -0.06900
C2298       C  0.66502032  0.63639725  0.52499531     0.13900
C2299       C  0.69257123  0.63253829  0.55110230    -0.23800
H2300       H  0.64189464  0.59026105  0.54025774     0.15200
H2301       H  0.64176033  0.67444459  0.94273452     0.15200
C2302       C  0.59165936  0.63066609  0.93453518    -0.23700
H2303       H  0.68117321  0.63055638  0.57636477     0.05400
H2304       H  0.69063636  0.65922344  0.05502856     0.08700
H2305       H  0.70729884  0.60927666  0.54600939     0.08700
H2306       H  0.57636956  0.65413784  0.93519770     0.08700
H2307       H  0.57884553  0.62449874  0.43911471     0.08700
H2308       H  0.60500461  0.62944158  0.91018486     0.05400
C2309       C  0.86702973  0.51891944  0.38655931    -0.20400
C2310       C  0.88817632  0.99663866  0.38917892    -0.06900
C2311       C  0.88391265  0.96760653  0.36919224     0.13900
C2312       C  0.85897412  0.96753669  0.34397181    -0.20400
C2313       C  0.83992016  0.49414856  0.33765384    -0.06900
C2314       C  0.84143225  0.51985352  0.36213970     0.13900
C2315       C  0.81685839  0.54896537  0.36192504    -0.23800
H2316       H  0.86822612  0.53851578  0.40549439     0.15200
H2317       H  0.85543600  0.94536502  0.32850310     0.15200
C2318       C  0.90507567  0.93647511  0.37507606    -0.23700
H2319       H  0.82310843  0.56776460  0.38164018     0.05400
H2320       H  0.79098048  0.54005338  0.36671496     0.08700
H2321       H  0.81744275  0.56182449  0.33720876     0.08700
H2322       H  0.90193416  0.92761946  0.40129892     0.08700
H2323       H  0.93201621  0.94211759  0.37079128     0.08700
H2324       H  0.89774524  0.91569237  0.35789041     0.05400
C2325       C  0.61921429  0.48002571  0.36885244    -0.20400
C2326       C  0.61434985  0.99431524  0.38996278    -0.06900
C2327       C  0.63711624  0.02100221  0.38537877     0.13900
C2328       C  0.66086981  0.01884020  0.35946329    -0.20400
C2329       C  0.66588310  0.50568490  0.33981473    -0.06900
C2330       C  0.64290773  0.47901598  0.34309387     0.13900
C2331       C  0.64397193  0.44893035  0.32005839    -0.23800
H2332       H  0.60147576  0.45970577  0.37125894     0.15200
H2333       H  0.67784894  0.03957717  0.35516838     0.15200
C2334       C  0.63673519  0.05138433  0.40808085    -0.23700
H2335       H  0.62535109  0.42964694  0.32730421     0.05400
H2336       H  0.67364261  0.91961756  0.33280855     0.08700
H2337       H  0.63818684  0.45661087  0.29386774     0.08700
H2338       H  0.64266009  0.04362590  0.43426938     0.08700
H2339       H  0.61717471  0.57430684  0.41437983     0.08700
H2340       H  0.65570390  0.07023195  0.40052233     0.05400
C2341       C  0.62380335  0.95685272  0.12450264    -0.20400
C2342       C  0.61491665  0.49797509  0.11336953    -0.06900
C2343       C  0.63326665  0.52735234  0.12085999     0.13900
C2344       C  0.65742958  0.52670058  0.14680713    -0.20400
C2345       C  0.66324643  0.49741329  0.16560249    -0.06900
C2346       C  0.64823003  0.95369051  0.15012742     0.13900
C2347       C  0.65728406  0.91893085  0.16244735    -0.23800
H2348       H  0.61266281  0.93447419  0.11381246     0.15200
H2349       H  0.67187187  0.54906658  0.15251644     0.15200
C2350       C  0.62727545  0.55925915  0.10148213    -0.23700
H2351       H  0.66699767  0.90364849  0.14123774     0.05400
H2352       H  0.63449631  0.90666779  0.17254485     0.08700
H2353       H  0.67679496  0.91909767  0.18256877     0.08700
H2354       H  0.60059106  0.56735160  0.10386022     0.08700
H2355       H  0.63279351  0.55438957  0.07475551     0.08700
H2356       H  0.64363853  0.58001933  0.11049738     0.05400
C2357       C  0.86218695  0.02060204  0.11298062    -0.20400
C2358       C  0.89058814  0.49627482  0.11501052    -0.06900
C2359       C  0.89106391  0.47170221  0.14076402     0.13900
C2360       C  0.86440342  0.47065032  0.16378562    -0.20400
C2361       C  0.83808156  0.49448257  0.16279845    -0.06900
C2362       C  0.83786090  0.02073227  0.13848175     0.13900
C2363       C  0.81306542  0.04953659  0.14044575    -0.23800
H2364       H  0.86226642  0.04067784  0.09475127     0.15200
H2365       H  0.86449208  0.45167210  0.18330357     0.15200
C2366       C  0.91938344  0.44639074  0.14403225    -0.23700
H2367       H  0.81727430  0.06838050  0.12038383     0.05400
H2368       H  0.81315701  0.56118544  0.16218446     0.08700
H2369       H  0.78694089  0.04022060  0.13759124     0.08700
H2370       H  0.94335382  0.45945151  0.14985529     0.08700
H2371       H  0.91330558  0.92913945  0.11019082     0.08700
H2372       H  0.91488956  0.42817459  0.16460266     0.05400
C2373       C  0.97469786  0.63569162  0.39029985    -0.20400
C2374       C  0.00022310  0.61110081  0.38874850    -0.06900
C2375       C  0.52589299  0.61299586  0.36046736     0.13900
C2376       C  0.52316234  0.63829300  0.33599427    -0.20400
C2377       C  0.99472783  0.66190072  0.33912147    -0.06900
C2378       C  0.97135047  0.66077715  0.36567945     0.13900
C2379       C  0.94204685  0.68495564  0.36838618    -0.23800
H2380       H  0.95663288  0.63483829  0.41050373     0.15200
H2381       H  0.54138338  0.63937727  0.31594104     0.15200
C2382       C  0.55453627  0.58804776  0.35838221    -0.23700
H2383       H  0.91815554  0.67062191  0.36870629     0.05400
H2384       H  0.94031746  0.70293386  0.34721096     0.08700
H2385       H  0.94431395  0.69953230  0.39209518     0.08700
H2386       H  0.54464977  0.56230023  0.35453107     0.08700
H2387       H  0.56962349  0.58889265  0.38192651     0.08700
H2388       H  0.57153764  0.59364592  0.33715111     0.05400
C2389       C  0.51053440  0.86333280  0.33060474    -0.20400
C2390       C  0.99005294  0.83672288  0.33903602    -0.06900
C2391       C  0.96727498  0.83731680  0.36618083     0.13900
C2392       C  0.96993725  0.86285479  0.39038971    -0.20400
C2393       C  0.99400220  0.88833313  0.38763110    -0.06900
C2394       C  0.51288056  0.88862649  0.35501544     0.13900
C2395       C  0.53601131  0.91765233  0.34870804    -0.23800
H2396       H  0.52560574  0.86496432  0.30812077     0.15200
H2397       H  0.95269423  0.86319960  0.41130414     0.15200
C2398       C  0.93959257  0.81191925  0.37018150    -0.23700
H2399       H  0.55096201  0.91415962  0.32551626     0.05400
H2400       H  0.55363522  0.91977933  0.37024084     0.08700
H2401       H  0.52125479  0.94129705  0.34582780     0.08700
H2402       H  0.94331007  0.79813583  0.39418834     0.08700
H2403       H  0.93854696  0.79329802  0.34950146     0.08700
H2404       H  0.91486531  0.82513747  0.37076024     0.05400
C2405       C  0.97025771  0.86412152  0.11232157    -0.20400
C2406       C  0.99640477  0.88757353  0.11477256    -0.06900
C2407       C  0.52058044  0.88218141  0.13636412     0.13900
C2408       C  0.51824326  0.85664949  0.16047750    -0.20400
C2409       C  0.98821027  0.83783045  0.16486045    -0.06900
C2410       C  0.96551259  0.83965823  0.13726666     0.13900
C2411       C  0.93562804  0.81666538  0.13459762    -0.23800
H2412       H  0.95294695  0.86548160  0.09111202     0.15200
H2413       H  0.53791818  0.85369871  0.17935529     0.15200
C2414       C  0.55076916  0.90482735  0.13685049    -0.23700
H2415       H  0.91999177  0.82225250  0.11195152     0.05400
H2416       H  0.91956035  0.81992723  0.15703225     0.08700
H2417       H  0.94400091  0.79008107  0.13289595     0.08700
H2418       H  0.54280442  0.93125747  0.14127488     0.08700
H2419       H  0.56371905  0.90290213  0.11236330     0.08700
H2420       H  0.56904165  0.89777933  0.15699580     0.05400
C2421       C  0.97008907  0.66078610  0.13975920    -0.20400
C2422       C  0.99451507  0.66169950  0.16544532    -0.06900
C2423       C  0.52860225  0.63987046  0.15749322     0.13900
C2424       C  0.52893197  0.61529785  0.13208758    -0.20400
C2425       C  0.99711416  0.61163188  0.11494809    -0.06900
C2426       C  0.97114686  0.63619511  0.11441397     0.13900
C2427       C  0.94385454  0.63589630  0.08782132    -0.23800
H2428       H  0.95006751  0.67947453  0.13961286     0.15200
H2429       H  0.55106294  0.59956881  0.12879218     0.15200
C2430       C  0.55955368  0.64509113  0.17901571    -0.23700
H2431       H  0.92460762  0.65579581  0.09219613     0.05400
H2432       H  0.93099927  0.61121556  0.08794258     0.08700
H2433       H  0.95482803  0.64032929  0.06272463     0.08700
H2434       H  0.55361594  0.64042063  0.20576770     0.08700
H2435       H  0.56845887  0.67133619  0.17618537     0.08700
H2436       H  0.58039427  0.62784894  0.17176128     0.05400
N2437       N  0.49514942  0.74824446  0.79971839    -0.36700
N2438       N  0.49036973  0.80045110  0.74860403    -0.57200
N2439       N  0.49249040  0.74944004  0.69686479    -0.36700
N2440       N  0.50025326  0.69728298  0.74832167    -0.57200
C2441       C  0.50094405  0.77613344  0.81830953     0.26900
C2442       C  0.50611315  0.72151063  0.81795000     0.26900
C2443       C  0.49717489  0.77735753  0.67812149     0.26900
C2444       C  0.50160710  0.72271526  0.67791087     0.26900
C2445       C  0.48388459  0.81929133  0.77607894     0.35500
C2446       C  0.48352782  0.82009825  0.72166088     0.35500
C2447       C  0.49577131  0.67727086  0.77536360     0.35500
C2448       C  0.49459519  0.67796537  0.72091029     0.35500
C2449       C  0.51579796  0.76704679  0.84869311    -0.22000
C2450       C  0.51914824  0.73257246  0.84841947    -0.22000
C2451       C  0.50909495  0.76818478  0.64675676    -0.22000
C2452       C  0.51178512  0.73367549  0.64659505    -0.22000
C2453       C  0.47285222  0.85108918  0.76652297    -0.23000
C2454       C  0.47277976  0.85164087  0.73203437    -0.23000
C2455       C  0.48732962  0.64509026  0.76503087    -0.23000
C2456       C  0.48676734  0.64548950  0.73052455    -0.23000
C2457       C  0.49102114  0.80927237  0.80951033    -0.18900
C2458       C  0.50133611  0.68734319  0.80909452    -0.18400
C2459       C  0.49875859  0.68862222  0.68736211    -0.18400
C2460       C  0.48927694  0.81070900  0.68793984    -0.18400
H2461       H  0.52297531  0.78349873  0.86918779     0.14500
H2462       H  0.52924083  0.71731245  0.86869376     0.14500
H2463       H  0.51495073  0.78460458  0.62599675     0.14500
H2464       H  0.52007272  0.71837220  0.62570824     0.14500
H2465       H  0.46627488  0.87197397  0.78269730     0.12800
H2466       H  0.46602488  0.87295040  0.71640417     0.12800
H2467       H  0.48236246  0.62348605  0.78065734     0.12800
H2468       H  0.48143467  0.62424769  0.71434506     0.12800
H2469       H  0.48054313  0.74722227  0.77791297     0.26100
H2470       H  0.48025509  0.74828715  0.71976170     0.26100
O2471       O  0.99806711  0.59401482  0.55698598    -0.80200
O2472       O  0.99888228  0.90283797  0.55655968    -0.81800
O2473       O  0.94696405  0.49771904  0.59664959    -0.78800
O2474       O  0.55536266  0.49835764  0.59854422    -0.77200
O2475       O  0.59460149  0.00299325  0.55617470    -0.79000
O2476       O  0.90539172  0.00025848  0.55754509    -0.79900
O2477       O  0.00169445  0.94339293  0.59741710    -0.81200
O2478       O  0.99991731  0.55312122  0.59751510    -0.81500
Eu2479     Eu  0.00092949  0.99870921  0.56954283     2.39200
O2480       O  0.53293976  0.96430300  0.53333566    -0.89000
O2481       O  0.96694347  0.53279810  0.53490107    -0.92600
C2482       C  0.99807049  0.58401903  0.58787326     1.02100
C2483       C  0.00013817  0.91247126  0.58760021     1.01900
C2484       C  0.91594325  0.49784184  0.58697865     1.01800
C2485       C  0.58648027  0.50024289  0.58969012     0.99700
H2486       H  0.95204386  0.95063877  0.54931609     0.29400
O2487       O  0.96614745  0.96459804  0.53558637    -1.01400
H2488       H  0.54791634  0.54791879  0.54982386     0.29500
O2489       O  0.53459088  0.53364252  0.53535147    -1.03900
O2490       O  0.99899934  0.90028957  0.94630453    -0.81200
O2491       O  0.00213341  0.59463661  0.94636572    -0.80700
O2492       O  0.90499455  0.94223312  0.99728463    -0.79100
O2493       O  0.59647004  0.94041107  0.99882673    -0.82500
O2494       O  0.59980066  0.55018168  0.99618046    -0.80300
O2495       O  0.90747915  0.55422684  0.99919356    -0.79000
O2496       O  0.94644413  0.99347440  0.90325918    -0.80500
O2497       O  0.55635456  0.99908336  0.90408839    -0.82400
O2498       O  0.90556438  0.99591006  0.94349336    -0.79200
O2499       O  0.59723138  0.99963065  0.94511977    -0.81800
O2500       O  0.94551454  0.90096099  0.99767761    -0.77600
O2501       O  0.94752839  0.59528202  0.99841316    -0.77600
O2502       O  0.55973584  0.59190646  0.99390734    -0.77300
O2503       O  0.55495360  0.90066971  0.99826171    -0.80800
O2504       O  0.00033032  0.94064390  0.90539121    -0.80200
O2505       O  0.00372025  0.55364417  0.90586500    -0.78500
Eu2506     Eu  0.00065576  0.92918848  0.00105300     2.39800
Eu2507     Eu  0.00281521  0.56735900  0.00194479     2.39600
Eu2508     Eu  0.93224850  0.99793869  0.99914886     2.38400
Eu2509     Eu  0.56951587  0.99646383  0.00005046     2.39900
Eu2510     Eu  0.00165570  0.99627139  0.93145660     2.39800
O2511       O  0.53776253  0.53014799  0.96603621    -0.92900
O2512       O  0.96723723  0.96356271  0.96615994    -0.91800
C2513       C  0.99910472  0.90987723  0.91532827     1.02200
C2514       C  0.00281542  0.58474679  0.91544626     1.01000
C2515       C  0.91450529  0.91107164  0.99687499     1.00400
C2516       C  0.58615678  0.90966627  0.99814838     1.02400
C2517       C  0.59053814  0.58127644  0.99311726     1.01300
C2518       C  0.91673485  0.58514379  0.99802871     1.00100
C2519       C  0.91549458  0.99384889  0.91283704     1.00200
C2520       C  0.58733813  0.00058238  0.91413861     1.02800
H2521       H  0.95518002  0.54607568  0.95299043     0.30200
O2522       O  0.96933932  0.53247511  0.96751883    -1.05100
H2523       H  0.54878841  0.94854749  0.95101129     0.32200
O2524       O  0.53506798  0.96264949  0.96522660    -1.07600
N2525       N  0.75360859  0.49742955  0.70000788    -0.36700
N2526       N  0.70167545  0.49782838  0.75129715    -0.57200
N2527       N  0.75333441  0.49569422  0.80287170    -0.36700
N2528       N  0.80548626  0.49184806  0.75163000    -0.57200
C2529       C  0.72600653  0.49087117  0.68089989     0.26900
C2530       C  0.78100071  0.49062565  0.68114973     0.26900
C2531       C  0.72558652  0.49119033  0.82175851     0.26900
C2532       C  0.78030496  0.48621221  0.82172778     0.26900
C2533       C  0.68197390  0.50241285  0.72382090     0.35500
C2534       C  0.68203705  0.50402674  0.77816370     0.35500
C2535       C  0.82515423  0.49897329  0.72507369     0.35500
C2536       C  0.82504834  0.49551535  0.77936914     0.35500
C2537       C  0.73600329  0.48001144  0.64939147    -0.22000
C2538       C  0.77070722  0.47986124  0.64954483    -0.22000
C2539       C  0.73507387  0.47902586  0.85310897    -0.22000
C2540       C  0.76959631  0.47581007  0.85306005    -0.22000
C2541       C  0.64955162  0.51119826  0.73327498    -0.23000
C2542       C  0.64964751  0.51240332  0.76771475    -0.23000
C2543       C  0.85740496  0.50692261  0.73602628    -0.23000
C2544       C  0.85739069  0.50449449  0.77041102    -0.23000
C2545       C  0.69212773  0.49650793  0.69042011    -0.18400
C2546       C  0.81492638  0.49616781  0.69102384    -0.18400
C2547       C  0.81443595  0.48992540  0.81264685    -0.18400
C2548       C  0.69205171  0.49889261  0.81192898    -0.18400
H2549       H  0.71995702  0.47326208  0.62833394     0.14500
H2550       H  0.78655200  0.47295245  0.62864283     0.14500
H2551       H  0.71883896  0.47326009  0.87396242     0.14500
H2552       H  0.78512713  0.46740749  0.87396398     0.14500
H2553       H  0.62793229  0.51576775  0.71708382     0.12800
H2554       H  0.62811116  0.51786876  0.78329942     0.12800
H2555       H  0.87880722  0.51356244  0.72086132     0.12800
H2556       H  0.87871276  0.50900889  0.78693153     0.12800
H2557       H  0.75381464  0.50967676  0.72305209     0.26100
H2558       H  0.75418304  0.50832201  0.78010496     0.26100
N2559       N  0.75231727  0.69572836  0.99016079    -0.36700
N2560       N  0.80310496  0.74735274  0.99321037    -0.57200
N2561       N  0.75092233  0.79763207  0.99687472    -0.36700
N2562       N  0.69987280  0.74578576  0.99238776    -0.57200
C2563       C  0.78022876  0.67828736  0.98161951     0.26900
C2564       C  0.72549153  0.67761066  0.97977869     0.26900
C2565       C  0.77770186  0.81614366  0.98738864     0.26900
C2566       C  0.72284279  0.81542208  0.98884283     0.26900
C2567       C  0.82230325  0.72012483  0.00014409     0.35500
C2568       C  0.82176081  0.77442692  0.00129666     0.35500
C2569       C  0.68115576  0.71792730  0.99667602     0.35500
C2570       C  0.68049931  0.77216398  0.00165398     0.35500
C2571       C  0.77115617  0.64876574  0.96540925    -0.22000
C2572       C  0.73646314  0.64836983  0.96418386    -0.22000
C2573       C  0.76650615  0.84590868  0.97292305    -0.22000
C2574       C  0.73179287  0.84547662  0.97387336    -0.22000
C2575       C  0.85332636  0.72985036  0.01306260    -0.23000
C2576       C  0.85299153  0.76445204  0.01373886    -0.23000
C2577       C  0.64965009  0.72656842  0.00874909    -0.23000
C2578       C  0.64925275  0.76104311  0.01198711    -0.23000
C2579       C  0.81334892  0.68713703  0.99097698    -0.18400
C2580       C  0.69170083  0.68521196  0.98761473    -0.18400
C2581       C  0.68964336  0.80609251  0.99710315    -0.18400
C2582       C  0.81180472  0.80768308  0.99393941    -0.18400
H2583       H  0.78778951  0.62924255  0.95613507     0.14500
H2584       H  0.72105392  0.62841367  0.95393027     0.14500
H2585       H  0.78178291  0.86599934  0.96313022     0.14500
H2586       H  0.71503442  0.86519494  0.96496615     0.14500
H2587       H  0.87432803  0.71376448  0.02015738     0.12800
H2588       H  0.87361890  0.78042450  0.02150424     0.12800
H2589       H  0.62899146  0.70987048  0.01412179     0.12800
H2590       H  0.62813481  0.77622627  0.02016867     0.12800
H2591       H  0.75168888  0.71628100  0.00636040     0.26100
H2592       H  0.75170431  0.77607661  0.01171722     0.26100
C2593       C  0.88740391  0.86409246  0.47060364    -0.20400
C2594       C  0.88778596  0.88508217  0.99587755    -0.06900
C2595       C  0.86222142  0.88417789  0.02034436     0.13900
C2596       C  0.83776991  0.85883452  0.01891516    -0.20400
C2597       C  0.83784395  0.83456795  0.99336491    -0.06900
C2598       C  0.86280312  0.83898047  0.46872026     0.13900
C2599       C  0.86262015  0.81629797  0.43832895    -0.23800
H2600       H  0.90611759  0.86573258  0.45107134     0.15200
H2601       H  0.81856151  0.85772561  0.03802005     0.15200
C2602       C  0.86134921  0.90919626  0.04875043    -0.23700
H2603       H  0.86043426  0.83182507  0.41523503     0.05400
H2604       H  0.83774103  0.81403337  0.92539399     0.08700
H2605       H  0.88653369  0.80168073  0.43750377     0.08700
H2606       H  0.88556971  0.90810280  0.06281710     0.08700
H2607       H  0.84140326  0.90549659  0.56832639     0.08700
H2608       H  0.85724331  0.93496294  0.03879820     0.05400
C2609       C  0.89143302  0.63542593  0.97097748    -0.20400
C2610       C  0.88989620  0.61072787  0.99600056    -0.06900
C2611       C  0.86006654  0.61144880  0.51836775     0.13900
C2612       C  0.83569237  0.63696208  0.51546233    -0.20400
C2613       C  0.83964738  0.66063683  0.99120983    -0.06900
C2614       C  0.86612387  0.65998299  0.96777295     0.13900
C2615       C  0.86793062  0.68420840  0.93878907    -0.23800
H2616       H  0.91201503  0.63503578  0.95331798     0.15200
H2617       H  0.81544260  0.63837864  0.53348586     0.15200
C2618       C  0.85715680  0.58632082  0.54629825    -0.23700
H2619       H  0.86819491  0.66985496  0.91485497     0.05400
H2620       H  0.88925420  0.69768959  0.43872717     0.08700
H2621       H  0.84622483  0.70185261  0.93754400     0.08700
H2622       H  0.88038316  0.58681497  0.56195170     0.08700
H2623       H  0.85563087  0.55924821  0.03393365     0.08700
H2624       H  0.83540371  0.59189904  0.56277982     0.05400
C2625       C  0.63770847  0.83265808  0.97321539    -0.20400
C2626       C  0.66295177  0.83262145  0.99813852    -0.06900
C2627       C  0.66203239  0.86316983  0.53194778     0.13900
C2628       C  0.63618115  0.88734134  0.52987586    -0.20400
C2629       C  0.61213605  0.88278249  0.99752458    -0.06900
C2630       C  0.61213964  0.85725983  0.97271450     0.13900
C2631       C  0.58594960  0.85647147  0.94503512    -0.23800
H2632       H  0.63815666  0.81333577  0.95398625     0.15200
H2633       H  0.63489390  0.90708337  0.54866032     0.15200
C2634       C  0.68641969  0.86525864  0.56112207    -0.23700
H2635       H  0.59057877  0.83556403  0.92709178     0.05400
H2636       H  0.58637363  0.88044881  0.93081216     0.08700
H2637       H  0.56189233  0.85255985  0.46249733     0.08700
H2638       H  0.71379671  0.86072199  0.04185734     0.08700
H2639       H  0.70543103  0.84472494  0.56121247     0.08700
H2640       H  0.67234091  0.86374479  0.58501866     0.05400
C2641       C  0.64301965  0.60774755  0.01352991    -0.20400
C2642       C  0.61728544  0.60673534  0.98920519    -0.06900
C2643       C  0.60976483  0.64271393  0.48002233     0.13900
C2644       C  0.63553947  0.66674960  0.48046508    -0.20400
C2645       C  0.66682054  0.65741074  0.98784544    -0.06900
C2646       C  0.66737351  0.63306964  0.01359015     0.13900
C2647       C  0.69276350  0.63461192  0.04197539    -0.23800
H2648       H  0.64339930  0.58929929  0.03331999     0.15200
H2649       H  0.63420538  0.68794766  0.46339582     0.15200
C2650       C  0.58087733  0.64706019  0.45545047    -0.23700
H2651       H  0.68867432  0.61446028  0.06075485     0.05400
H2652       H  0.71013069  0.65404717  0.55184620     0.08700
H2653       H  0.71864469  0.63154226  0.03216715     0.08700
H2654       H  0.55696936  0.65091700  0.46915432     0.08700
H2655       H  0.57443020  0.60895836  0.93540845     0.08700
H2656       H  0.58435540  0.66927648  0.43900164     0.05400
C2657       C  0.86928659  0.51942059  0.88546083    -0.20400
C2658       C  0.88907521  0.99221558  0.88687588    -0.06900
C2659       C  0.88521717  0.96380695  0.86592594     0.13900
C2660       C  0.85861519  0.96328536  0.84238313    -0.20400
C2661       C  0.84028664  0.49047835  0.83997453    -0.06900
C2662       C  0.84457746  0.51943474  0.86007431     0.13900
C2663       C  0.82394712  0.55081015  0.85381301    -0.23800
H2664       H  0.87259372  0.54155357  0.90105607     0.15200
H2665       H  0.85552192  0.94175950  0.82593805     0.15200
C2666       C  0.90869293  0.93392817  0.86891096    -0.23700
H2667       H  0.83122076  0.57148514  0.87114691     0.05400
H2668       H  0.79682668  0.54558667  0.85747580     0.08700
H2669       H  0.82784492  0.55958937  0.82768292     0.08700
H2670       H  0.90822091  0.92386932  0.89491463     0.08700
H2671       H  0.93478031  0.94151451  0.86285096     0.08700
H2672       H  0.90138051  0.91337055  0.85145109     0.05400
C2673       C  0.62163253  0.46962283  0.86858660    -0.20400
C2674       C  0.61338458  0.00348097  0.88808606    -0.06900
C2675       C  0.63571646  0.03109356  0.88653031     0.13900
C2676       C  0.65963763  0.03222092  0.86078555    -0.20400
C2677       C  0.66558063  0.49836303  0.83815473    -0.06900
C2678       C  0.64550219  0.46965639  0.84289220     0.13900
C2679       C  0.64971060  0.43884913  0.82121386    -0.23800
H2680       H  0.60653487  0.44762418  0.87253565     0.15200
H2681       H  0.67669795  0.05333108  0.85939209     0.15200
C2682       C  0.63488873  0.05994054  0.91116071    -0.23700
H2683       H  0.63282344  0.41823251  0.82906657     0.05400
H2684       H  0.66987235  0.93821127  0.81773420     0.08700
H2685       H  0.64367627  0.44503918  0.79465539     0.08700
H2686       H  0.65914980  0.06091192  0.92524536     0.08700
H2687       H  0.60860011  0.56537538  0.90781341     0.08700
H2688       H  0.63138335  0.08397520  0.89736011     0.05400
C2689       C  0.61455287  0.97729803  0.63520336    -0.20400
C2690       C  0.61241181  0.50035114  0.61640339    -0.06900
C2691       C  0.63108486  0.52941980  0.62455490     0.13900
C2692       C  0.65789455  0.52691210  0.64767187    -0.20400
C2693       C  0.66543324  0.49649930  0.66397075    -0.06900
C2694       C  0.63977817  0.97684614  0.66009068     0.13900
C2695       C  0.64264938  0.94601726  0.68192844    -0.23800
H2696       H  0.59853656  0.95564865  0.63206590     0.15200
H2697       H  0.67241080  0.54911731  0.65384478     0.15200
C2698       C  0.62273603  0.56359953  0.61034842    -0.23700
H2699       H  0.64660378  0.92348756  0.66589164     0.05400
H2700       H  0.61895299  0.94286651  0.69612756     0.08700
H2701       H  0.66383168  0.94723362  0.70020775     0.08700
H2702       H  0.61652657  0.58108309  0.63120611     0.08700
H2703       H  0.60094254  0.56332603  0.59271184     0.08700
H2704       H  0.64494201  0.57344360  0.59698210     0.05400
C2705       C  0.86783668  0.02610084  0.61790864    -0.20400
C2706       C  0.89034329  0.49662790  0.61357783    -0.06900
C2707       C  0.89154966  0.47227878  0.63945924     0.13900
C2708       C  0.86643842  0.47253973  0.66405738    -0.20400
C2709       C  0.84114809  0.49746887  0.66441040    -0.06900
C2710       C  0.84301065  0.02756063  0.64272124     0.13900
C2711       C  0.82307484  0.05978051  0.64612388    -0.23800
H2712       H  0.87108911  0.04739538  0.60146405     0.15200
H2713       H  0.86666416  0.45337518  0.68339204     0.15200
C2714       C  0.91884009  0.44567581  0.64100687    -0.23700
H2715       H  0.84061634  0.08094715  0.65081925     0.05400
H2716       H  0.79990701  0.55243308  0.66103452     0.08700
H2717       H  0.80881513  0.06472474  0.62249004     0.08700
H2718       H  0.94369598  0.45753219  0.64549182     0.08700
H2719       H  0.91069743  0.92983435  0.61235708     0.08700
H2720       H  0.91470604  0.42755411  0.66173280     0.05400
C2721       C  0.97476324  0.63493401  0.89055903    -0.20400
C2722       C  0.00106637  0.61118308  0.88916807    -0.06900
C2723       C  0.52981755  0.60969197  0.85834388     0.13900
C2724       C  0.52742464  0.63540361  0.83414449    -0.20400
C2725       C  0.99427437  0.66176407  0.83947211    -0.06900
C2726       C  0.97078772  0.65989390  0.86583645     0.13900
C2727       C  0.94087135  0.68339957  0.86735016    -0.23800
H2728       H  0.95670037  0.63338004  0.91068713     0.15200
H2729       H  0.54485765  0.63539395  0.81335810     0.15200
C2730       C  0.55727719  0.58369908  0.85403242    -0.23700
H2731       H  0.92435084  0.67735062  0.88876355     0.05400
H2732       H  0.92572055  0.68127417  0.84385891     0.08700
H2733       H  0.94921113  0.70975007  0.87056753     0.08700
H2734       H  0.55317096  0.56986083  0.83011600     0.08700
H2735       H  0.55857651  0.56520507  0.87468933     0.08700
H2736       H  0.58208155  0.59637936  0.85308355     0.05400
C2737       C  0.51610568  0.86042717  0.83464054    -0.20400
C2738       C  0.98807909  0.83632564  0.83715797    -0.06900
C2739       C  0.96499739  0.83770707  0.86398468     0.13900
C2740       C  0.97002119  0.86113331  0.88988695    -0.20400
C2741       C  0.99674216  0.88394916  0.88896361    -0.06900
C2742       C  0.51838920  0.88574889  0.85903197     0.13900
C2743       C  0.54609426  0.91123186  0.85645128    -0.23800
H2744       H  0.53388388  0.85985552  0.81416038     0.15200
H2745       H  0.95232438  0.86232332  0.91039037     0.15200
C2746       C  0.93456318  0.81539551  0.86570778    -0.23700
H2747       H  0.56287463  0.90594076  0.83490345     0.05400
H2748       H  0.56168658  0.91071412  0.87974604     0.08700
H2749       H  0.53525119  0.93676438  0.85274887     0.08700
H2750       H  0.93626499  0.79950042  0.88857490     0.08700
H2751       H  0.93188788  0.79867946  0.84356929     0.08700
H2752       H  0.91147626  0.83127196  0.86695883     0.05400
C2753       C  0.97009602  0.86578414  0.61544584    -0.20400
C2754       C  0.99876643  0.88614122  0.61388536    -0.06900
C2755       C  0.51867231  0.88572982  0.63797409     0.13900
C2756       C  0.51591870  0.86079597  0.66263788    -0.20400
C2757       C  0.99396842  0.83511801  0.66305136    -0.06900
C2758       C  0.96709399  0.84085200  0.64022681     0.13900
C2759       C  0.93485043  0.82137128  0.64281180    -0.23800
H2760       H  0.94959491  0.87002314  0.59771400     0.15200
H2761       H  0.53467725  0.85913161  0.68256209     0.15200
C2762       C  0.54796852  0.90950504  0.63948774    -0.23700
H2763       H  0.91595700  0.82961528  0.62371344     0.05400
H2764       H  0.92381699  0.82527348  0.66805100     0.08700
H2765       H  0.93992356  0.79416049  0.63901444     0.08700
H2766       H  0.53876855  0.93566902  0.64304614     0.08700
H2767       H  0.56241840  0.90774584  0.61580807     0.08700
H2768       H  0.56540660  0.90354059  0.66068579     0.05400
C2769       C  0.96488239  0.65411786  0.64348337    -0.20400
C2770       C  0.99241499  0.65910672  0.66525495    -0.06900
C2771       C  0.52881451  0.64273797  0.65496926     0.13900
C2772       C  0.52778019  0.61732204  0.63047282    -0.20400
C2773       C  0.99549765  0.60983833  0.61434717    -0.06900
C2774       C  0.96601209  0.62947526  0.61818325     0.13900
C2775       C  0.93538695  0.62349069  0.59640824    -0.23800
H2776       H  0.94243536  0.66947228  0.64644260     0.15200
H2777       H  0.54984399  0.60172551  0.62620117     0.15200
C2778       C  0.56093803  0.64878273  0.67444010    -0.23700
H2779       H  0.91398884  0.64007322  0.60354284     0.05400
H2780       H  0.92730057  0.59697538  0.59920784     0.08700
H2781       H  0.94132635  0.62840180  0.56969659     0.08700
H2782       H  0.55673727  0.64468729  0.70162581     0.08700
H2783       H  0.56933508  0.67504009  0.67043738     0.08700
H2784       H  0.58147953  0.63157650  0.66633549     0.05400
loop_ 
_geom_bond_atom_site_label_1 
_geom_bond_atom_site_label_2 
_geom_bond_distance 
_geom_bond_site_symmetry_2 
_ccdc_geom_bond_type 
N1            C6   1.352       .  A
N1            C5   1.354       .  A
N1           H33   1.040       .  S
N2            C9   1.351       .  A
N2           C10   1.349       .  A
N3            C8   1.355   1_655  A
N3            C7   1.353       .  A
N3           H34   1.040       .  S
N4           C11   1.353       .  A
N4           C12   1.354       .  A
C5           C13   1.387   1_655  A
C5           C21   1.414       .  A
C6           C22   1.415       .  A
C6           C14   1.387   1_655  A
C7           C15   1.388   1_655  A
C7           C24   1.416       .  A
C8           C23   1.416   1_455  A
C8           C16   1.386       .  A
C9           C21   1.411       .  A
C9           C17   1.386       .  A
C10          C24   1.413       .  A
C10          C18   1.388       .  A
C11          C19   1.387       .  A
C11          C22   1.418       .  A
C12          C20   1.386       .  A
C12          C23   1.418       .  A
C13          C14   1.374       .  A
C13          H25   1.082       .  S
C14          H26   1.082       .  S
C15          C16   1.376       .  A
C15          H27   1.082       .  S
C16          H28   1.082       .  S
C17          C18   1.375       .  A
C17          H29   1.083       .  S
C18          H30   1.083       .  S
C19          C20   1.376       .  A
C19          H31   1.082       .  S
C20          H32   1.082       .  S
C21        C1694   1.490       .  S
C22        C1681   1.494       .  S
C23        C1726   1.502       .  S
C24        C1713   1.488       .  S
O35          C46   1.291       .  A
O35        Eu419   2.458   1_554  S
O36          C47   1.294       .  A
O36        Eu418   2.479   1_554  S
O37          C48   1.291       .  A
O37        Eu739   2.461       .  S
O38          C49   1.291       .  A
O38       Eu2131   2.457       .  S
O39         C745   1.290       .  A
O39        Eu421   2.455       .  S
O40         C744   1.293       .  A
O40        Eu420   2.471   1_554  S
O41          C47   1.293       .  A
O41         Eu43   2.469       .  S
O42          C46   1.294       .  A
O42        Eu739   2.474   1_545  S
Eu43        O733   2.473       .  S
Eu43       O2126   2.469       .  S
Eu43        O738   2.465       .  S
Eu43         O51   2.357       .  S
Eu43       O2141   2.365       .  S
Eu43        O741   2.360       .  S
Eu43       O1436   2.354       .  S
O44       Eu1435   2.355       .  S
O44        Eu421   2.362       .  S
O44       Eu1810   2.364       .  S
O45        Eu739   2.358   1_545  S
O45        Eu419   2.358   1_554  S
O45       Eu1116   2.352   1_544  S
C46         C337   1.486       .  S
C47         C318   1.488       .  S
C48         C270   1.486       .  S
C48         O736   1.294   1_565  A
C49         C254   1.473       .  S
C49         O735   1.291       .  A
H50          O51   0.965       .  S
O51        Eu420   2.344   1_554  S
O51        Eu418   2.348   1_554  S
H52          O53   0.965       .  S
O53       Eu2131   2.368   1_545  S
O53       Eu1811   2.358   1_554  S
O53       Eu1117   2.360   1_545  S
O54          C77   1.290       .  A
O54         Eu70   2.454       .  S
O55          C78   1.291       .  A
O55         Eu71   2.456       .  S
O56          C79   1.290       .  A
O56         Eu72   2.455       .  S
O57          C80   1.289       .  A
O57         Eu73   2.450       .  S
O58          C81   1.294       .  A
O58        Eu769   2.475   1_545  S
O59          C82   1.290       .  A
O59        Eu768   2.455   1_545  S
O60          C83   1.287       .  A
O60         Eu74   2.436       .  S
O61          C84   1.296       .  A
O61       Eu1466   2.489       .  S
O62          C83   1.291       .  A
O62         Eu72   2.457       .  S
O63          C84   1.289       .  A
O63         Eu73   2.454       .  S
O64          C79   1.293       .  A
O64         Eu70   2.475       .  S
O65          C82   1.291       .  A
O65         Eu71   2.457       .  S
O66          C81   1.290       .  A
O66       Eu1463   2.456       .  S
O67          C80   1.290       .  A
O67       Eu1462   2.452       .  S
O68          C77   1.290       .  A
O68         Eu74   2.457       .  S
O69          C78   1.290       .  A
O69        Eu770   2.452   1_545  S
Eu70        O384   2.471       .  S
Eu70       O1459   2.449       .  S
Eu70         O76   2.340       .  S
Eu70       O1784   2.366       .  S
Eu70        O399   2.343       .  S
Eu70       O1480   2.367       .  S
Eu71        O383   2.460       .  S
Eu71       O1458   2.468       .  S
Eu71         O86   2.346       .  S
Eu71        O393   2.364       .  S
Eu71       O1793   2.351       .  S
Eu71       O1467   2.348       .  S
Eu72        O388   2.480       .  S
Eu72        O755   2.457       .  S
Eu72         O76   2.350       .  S
Eu72       O1089   2.352       .  S
Eu72        O399   2.346       .  S
Eu72        O782   2.363       .  S
Eu73        O387   2.455       .  S
Eu73        O754   2.452       .  S
Eu73         O88   2.362       .  S
Eu73        O392   2.354       .  S
Eu73       O1097   2.355       .  S
Eu73        O771   2.350       .  S
Eu74       O1453   2.458       .  S
Eu74        O765   2.456       .  S
Eu74         O76   2.352       .  S
Eu74       O2163   2.342       .  S
Eu74        O782   2.359       .  S
Eu74       O1480   2.347       .  S
O75       Eu1463   2.352       .  S
O75        Eu769   2.351   1_545  S
O75       Eu2162   2.343   1_545  S
C77         C305   1.478       .  S
C78         C286   1.474       .  S
C79         C158   1.481       .  S
C80         C193   1.468       .  S
C81         C206   1.488       .  S
C82         C174   1.475       .  S
C83         C222   1.461       .  S
C84         C238   1.489       .  S
H85          O86   0.966       .  S
O86        Eu768   2.359   1_545  S
O86        Eu770   2.354   1_545  S
H87          O88   0.965       .  S
O88       Eu1462   2.367       .  S
O88       Eu1466   2.350       .  S
N89          C94   1.356       .  A
N89          C93   1.350       .  A
N89         H121   1.039   1_565  S
N90          C97   1.349       .  A
N90          C98   1.354       .  A
N91          C96   1.350       .  A
N91          C95   1.355       .  A
N91         H122   1.040       .  S
N92          C99   1.354       .  A
N92         C100   1.349       .  A
C93         C101   1.388       .  A
C93         C109   1.415       .  A
C94         C110   1.416       .  A
C94         C102   1.386       .  A
C95         C103   1.385   1_545  A
C95         C112   1.412       .  A
C96         C111   1.414       .  A
C96         C104   1.389   1_545  A
C97         C109   1.415   1_545  A
C97         C105   1.389       .  A
C98         C112   1.412       .  A
C98         C106   1.384       .  A
C99         C107   1.385       .  A
C99         C110   1.415   1_545  A
C100        C108   1.388       .  A
C100        C111   1.414       .  A
C101        C102   1.378       .  A
C101        H113   1.082       .  S
C102        H114   1.083       .  S
C103        C104   1.374       .  A
C103        H115   1.082       .  S
C104        H116   1.082       .  S
C105        C106   1.374       .  A
C105        H117   1.082       .  S
C106        H118   1.082       .  S
C107        C108   1.375       .  A
C107        H119   1.082       .  S
C108        H120   1.083       .  S
C109        C257   1.480       .  S
C110        C273   1.502       .  S
C111        C225   1.481       .  S
C112        C241   1.496       .  S
N123        C128   1.354       .  A
N123        C127   1.350       .  A
N123        H155   1.040       .  S
N124        C131   1.349       .  A
N124        C132   1.352       .  A
N125        C130   1.351       .  A
N125        C129   1.356       .  A
N125        H156   1.039       .  S
N126        C133   1.354       .  A
N126        C134   1.350       .  A
C127        C135   1.387       .  A
C127        C143   1.413       .  A
C128        C144   1.415       .  A
C128        C136   1.387       .  A
C129        C137   1.386       .  A
C129        C146   1.417       .  A
C130        C145   1.417       .  A
C130        C138   1.389       .  A
C131        C143   1.412       .  A
C131        C139   1.387       .  A
C132        C146   1.411       .  A
C132        C140   1.384       .  A
C133        C141   1.385       .  A
C133        C144   1.416       .  A
C134        C142   1.387       .  A
C134        C145   1.414       .  A
C135        C136   1.378       .  A
C135        H147   1.082       .  S
C136        H148   1.083       .  S
C137        C138   1.378       .  A
C137        H149   1.082       .  S
C138        H150   1.082       .  S
C139        C140   1.372       .  A
C139        H151   1.082       .  S
C140        H152   1.082       .  S
C141        C142   1.375       .  A
C141        H153   1.082       .  S
C142        H154   1.083       .  S
C143        C177   1.484       .  S
C144        C209   1.499       .  S
C145        C190   1.483       .  S
C146        C161   1.498       .  S
C157        C162   1.406       .  A
C157        C506   1.404       .  A
C157        H164   1.084       .  S
C158        C159   1.413       .  A
C158        C505   1.403       .  A
C159        C160   1.404       .  A
C159        C166   1.507       .  S
C160        C161   1.404       .  A
C160        H165   1.084       .  S
C161        C510   1.420       .  A
C162        C509   1.418       .  A
C162        C163   1.507       .  S
C163        H167   1.111       .  S
C163        H169   1.110       .  S
C163        H516   1.107       .  S
C166        H170   1.110       .  S
C166        H172   1.109       .  S
C166        H519   1.111       .  S
H168        C511   1.107       .  S
H171        C514   1.111       .  S
C173        C174   1.404       .  A
C173        C178   1.403       .  A
C173        H180   1.084       .  S
C174        C523   1.413       .  A
C175        C176   1.403       .  A
C175        C522   1.415   1_554  A
C175        C182   1.506       .  S
C176        C525   1.403   1_554  A
C176        H181   1.084       .  S
C177        C178   1.415       .  A
C177        C524   1.401       .  A
C178        C179   1.508       .  S
C179        H183   1.110       .  S
C179        H185   1.108       .  S
C179        H532   1.110       .  S
C182        H186   1.110       .  S
C182        H188   1.111       .  S
C182        H535   1.109       .  S
H184        C527   1.110       .  S
H187        C530   1.109       .  S
C189        C190   1.402       .  A
C189        C194   1.399       .  A
C189        H196   1.084       .  S
C190        C539   1.415       .  A
C191        C192   1.404       .  A
C191        C538   1.416   1_554  A
C191        C198   1.507       .  S
C192        C541   1.401       .  A
C192        H197   1.085       .  S
C193        C194   1.412       .  A
C193        C540   1.402       .  A
C194        C195   1.508       .  S
C195        H199   1.111       .  S
C195        H200   1.110       .  S
C195        H549   1.109       .  S
C198        H203   1.108       .  S
C198        H204   1.111       .  S
C198        H550   1.110       .  S
H201        C543   1.109       .  S
H202        C546   1.110       .  S
C205        C206   1.404       .  A
C205        C210   1.407       .  A
C205        H212   1.082       .  S
C206        C555   1.418       .  A
C207        C208   1.408       .  A
C207        C554   1.419       .  A
C207        C214   1.509       .  S
C208        C557   1.406       .  A
C208        H213   1.084       .  S
C209        C210   1.416       .  A
C209        C556   1.404       .  A
C210        C211   1.508       .  S
C211        H215   1.111       .  S
C211        H217   1.107       .  S
C211        H564   1.110       .  S
C214        H218   1.110       .  S
C214        H220   1.111       .  S
C214        H567   1.106       .  S
H216        C559   1.110       .  S
H219        C562   1.110       .  S
C221        C226   1.398       .  A
C221        C918   1.402       .  A
C221        H228   1.085       .  S
C222        C223   1.412       .  A
C222        C917   1.399       .  A
C223        C224   1.401       .  A
C223        C230   1.509       .  S
C224        C921   1.403       .  A
C224        H229   1.084       .  S
C225        C226   1.414       .  A
C225        C920   1.403   1_545  A
C226        C227   1.508       .  S
C227        H231   1.111       .  S
C227        H232   1.111       .  S
C227        H233   1.108       .  S
C230        H234   1.111       .  S
C230        H235   1.110       .  S
C230        H236   1.111       .  S
C237        C242   1.406       .  A
C237        C934   1.402   1_565  A
C237        H244   1.081       .  S
C238        C239   1.417       .  A
C238        C933   1.400       .  A
C239        C240   1.411       .  A
C239        C246   1.507       .  S
C240        C937   1.408       .  A
C240        H245   1.084       .  S
C241        C242   1.413   1_545  A
C241        C936   1.405       .  A
C242        C243   1.507       .  S
C243        H247   1.111       .  S
C243        H249   1.109       .  S
C243        H944   1.111       .  S
C246        H250   1.110       .  S
C246        H252   1.111       .  S
C246        H947   1.108       .  S
H248        C939   1.108       .  S
H251        C942   1.110       .  S
C253        C258   1.397       .  A
C253        C950   1.397       .  A
C253        H260   1.071       .  S
C254        C255   1.410   1_565  A
C254        C949   1.399       .  A
C255        C256   1.402       .  A
C255        C262   1.503       .  S
C256        C257   1.402   1_545  A
C256        H261   1.084       .  S
C257        C954   1.412       .  A
C258        C953   1.410       .  A
C258        C259   1.508       .  S
C259        H263   1.111       .  S
C259        H264   1.110       .  S
C259        H265   1.108       .  S
C262        H266   1.111       .  S
C262        H267   1.107       .  S
C262        H268   1.111       .  S
C269        C274   1.407       .  A
C269        C966   1.403       .  A
C269        H276   1.081       .  S
C270        C271   1.416       .  A
C270        C965   1.402   1_565  A
C271        C272   1.410       .  A
C271        C278   1.509       .  S
C272        C273   1.406       .  A
C272        H277   1.084       .  S
C273        C970   1.416   1_565  A
C274        C969   1.416       .  A
C274        C275   1.508       .  S
C275        H279   1.111       .  S
C275        H281   1.108       .  S
C275        H976   1.110       .  S
C278        H282   1.109       .  S
C278        H284   1.111       .  S
C278        H979   1.111       .  S
H280        C971   1.110       .  S
H283        C974   1.110       .  S
C285        C286   1.402       .  A
C285        C290   1.399       .  A
C285        H292   1.084       .  S
C286       C1679   1.413       .  A
C287        C288   1.404       .  A
C287       C1678   1.416       .  A
C287        C294   1.506       .  S
C288       C1681   1.403   1_455  A
C288        H293   1.085       .  S
C289        C290   1.414       .  A
C289       C1680   1.405       .  A
C289       C1414   1.486       .  S
C290        C291   1.508       .  S
C291        H295   1.110       .  S
C291        H296   1.107       .  S
C291        H297   1.110       .  S
C294        H298   1.105       .  S
C294        H299   1.111       .  S
C294        H300   1.110       .  S
C301        C306   1.402       .  A
C301       C1694   1.400   1_455  A
C301        H308   1.084       .  S
C302        C303   1.414       .  A
C302       C1693   1.403       .  A
C302       C1413   1.492       .  S
C303        C304   1.404       .  A
C303        C310   1.507       .  S
C304        C305   1.403       .  A
C304        H309   1.084       .  S
C305       C1698   1.413       .  A
C306       C1697   1.414   1_455  A
C306        C307   1.502       .  S
C307        H311   1.111       .  S
C307        H312   1.109       .  S
C307        H313   1.109       .  S
C310        H314   1.109       .  S
C310        H315   1.110       .  S
C310        H316   1.110       .  S
C317        C318   1.406       .  A
C317        C322   1.409       .  A
C317        H324   1.084       .  S
C318       C1711   1.416       .  A
C319        C320   1.400       .  A
C319       C1710   1.413   1_455  A
C319        C326   1.497       .  S
C320       C1713   1.400   1_455  A
C320        H325   1.084       .  S
C321        C322   1.415       .  A
C321       C1712   1.402       .  A
C321       C1416   1.495       .  S
C322        C323   1.507       .  S
C323        H327   1.111       .  S
C323        H328   1.111       .  S
C323        H329   1.109       .  S
C326        H330   1.110       .  S
C326        H331   1.109       .  S
C326        H332   1.111       .  S
C333        C334   1.405       .  A
C333        C338   1.406       .  A
C333        H340   1.084       .  S
C334       C1727   1.419       .  A
C334       C1415   1.498       .  S
C335        C336   1.407       .  A
C335       C1726   1.417   1_455  A
C335        C342   1.507       .  S
C336       C1729   1.405   1_455  A
C336        H341   1.085       .  S
C337        C338   1.417       .  A
C337       C1728   1.403       .  A
C338        C339   1.509       .  S
C339        H343   1.111       .  S
C339        H344   1.110       .  S
C339        H345   1.110       .  S
C342        H346   1.110       .  S
C342        H347   1.108       .  S
C342        H348   1.111       .  S
N349        C354   1.354       .  A
N349        C353   1.355       .  A
N349        H381   1.041       .  S
N350        C357   1.353       .  A
N350        C358   1.352       .  A
N351        C356   1.355       .  A
N351        C355   1.353       .  A
N351        H382   1.041       .  S
N352        C359   1.350       .  A
N352        C360   1.350       .  A
C353        C361   1.386   1_655  A
C353        C369   1.415       .  A
C354        C370   1.415       .  A
C354        C362   1.386   1_655  A
C355        C363   1.387   1_655  A
C355        C372   1.417       .  A
C356        C371   1.415       .  A
C356        C364   1.386   1_655  A
C357        C369   1.416       .  A
C357        C365   1.386       .  A
C358        C372   1.416       .  A
C358        C366   1.387       .  A
C359        C367   1.387       .  A
C359        C370   1.412       .  A
C360        C368   1.387       .  A
C360        C371   1.411       .  A
C361        C362   1.376       .  A
C361        H373   1.082       .  S
C362        H374   1.082       .  S
C363        C364   1.377       .  A
C363        H375   1.082       .  S
C364        H376   1.082       .  S
C365        C366   1.376       .  A
C365        H377   1.082       .  S
C366        H378   1.082       .  S
C367        C368   1.374       .  A
C367        H379   1.082       .  S
C368        H380   1.083       .  S
C369       C2042   1.498       .  S
C370       C2029   1.492       .  S
C371       C2074   1.490       .  S
C372       C2061   1.494       .  S
O383        C394   1.291       .  A
O384        C395   1.292       .  A
O385        C396   1.290       .  A
O385      Eu1087   2.459       .  S
O386        C397   1.289       .  A
O386      Eu2479   2.448       .  S
O387       C1093   1.289       .  A
O388       C1092   1.295       .  A
O389        C395   1.294       .  A
O389       Eu391   2.479       .  S
O390        C394   1.289       .  A
O390      Eu1087   2.450   1_545  S
Eu391      O1081   2.461       .  S
Eu391      O2474   2.462       .  S
Eu391      O1086   2.479       .  S
Eu391      O2489   2.359       .  S
Eu391      O1089   2.366       .  S
Eu391      O1784   2.356       .  S
Eu391       O399   2.352       .  S
O392      Eu1783   2.345       .  S
O392      Eu1462   2.361       .  S
O393      Eu1087   2.356   1_545  S
O393       Eu768   2.351   1_545  S
C394        C685   1.466       .  S
C395        C666   1.485       .  S
C396        C618   1.481       .  S
C396       O1084   1.293       .  A
C397        C602   1.456       .  S
C397       O1083   1.287       .  A
H398        O399   0.966       .  S
H400        O401   0.965       .  S
O401      Eu2479   2.356   1_545  S
O401      Eu1463   2.357       .  S
O401       Eu769   2.359   1_545  S
O402        C425   1.293       .  A
O402       Eu418   2.474       .  S
O403        C426   1.291       .  A
O403       Eu419   2.462       .  S
O404        C427   1.292       .  A
O404       Eu420   2.469       .  S
O405        C428   1.291       .  A
O405       Eu421   2.457       .  S
O406        C429   1.292       .  A
O406      Eu1117   2.462   1_546  S
O407        C430   1.288       .  A
O407      Eu1116   2.444   1_545  S
O408        C431   1.289       .  A
O408       Eu422   2.450       .  S
O409        C432   1.293       .  A
O409      Eu1814   2.474       .  S
O410        C431   1.288       .  A
O410       Eu420   2.442       .  S
O411        C432   1.291       .  A
O411       Eu421   2.467   1_556  S
O412        C427   1.291       .  A
O412       Eu418   2.464       .  S
O413        C430   1.295       .  A
O413       Eu419   2.485       .  S
O414        C429   1.292       .  A
O414      Eu1811   2.465       .  S
O415        C428   1.291       .  A
O415      Eu1810   2.457       .  S
O416        C425   1.290       .  A
O416       Eu422   2.457       .  S
O417        C426   1.289       .  A
O417      Eu1118   2.451   1_545  S
Eu418      O1807   2.436   1_556  S
Eu418      O1436   2.364   1_556  S
Eu418      O1828   2.368       .  S
Eu418       O424   2.342       .  S
Eu419      O1806   2.472       .  S
Eu419      O1445   2.370   1_556  S
Eu419      O1815   2.351       .  S
Eu419       O434   2.349       .  S
Eu420      O1103   2.454       .  S
Eu420       O741   2.353   1_556  S
Eu420      O1130   2.365       .  S
Eu420       O424   2.352       .  S
Eu421      O1102   2.465       .  S
Eu421       O749   2.357       .  S
Eu421      O1119   2.346   1_554  S
Eu421       O436   2.364   1_554  S
Eu422      O1801   2.467       .  S
Eu422      O1113   2.477       .  S
Eu422      O2511   2.339       .  S
Eu422      O1130   2.362       .  S
Eu422      O1828   2.356       .  S
Eu422       O424   2.356       .  S
O423      Eu1811   2.350       .  S
O423      Eu1117   2.349   1_546  S
O423      Eu2510   2.343   1_545  S
C425        C653   1.484       .  S
C426        C634   1.474       .  S
C427        C506   1.484       .  S
C428        C541   1.470       .  S
C429        C554   1.483       .  S
C430        C522   1.482       .  S
C431        C570   1.462       .  S
C432        C586   1.485       .  S
H433        O434   0.966       .  S
O434      Eu1116   2.355   1_545  S
O434      Eu1118   2.352   1_545  S
H435        O436   0.966       .  S
O436      Eu1810   2.366   1_556  S
O436      Eu1814   2.349       .  S
N437        C442   1.353       .  A
N437        C441   1.349       .  A
N437        H469   1.040   1_565  S
N438        C445   1.349       .  A
N438        C446   1.351       .  A
N439        C444   1.352   1_545  A
N439        C443   1.355   1_545  A
N439        H470   1.039       .  S
N440        C447   1.352       .  A
N440        C448   1.349       .  A
C441        C449   1.387       .  A
C441        C457   1.409       .  A
C442        C458   1.411       .  A
C442        C450   1.386       .  A
C443        C451   1.385       .  A
C443        C460   1.415       .  A
C444        C459   1.416   1_565  A
C444        C452   1.388       .  A
C445        C457   1.409       .  A
C445        C453   1.387   1_565  A
C446        C460   1.411       .  A
C446        C454   1.386   1_565  A
C447        C455   1.385       .  A
C447        C458   1.411   1_545  A
C448        C456   1.387       .  A
C448        C459   1.413       .  A
C449        C450   1.375       .  A
C449        H461   1.082       .  S
C450        H462   1.082       .  S
C451        C452   1.376       .  A
C451        H463   1.082       .  S
C452        H464   1.082       .  S
C453        C454   1.373       .  A
C453        H465   1.082       .  S
C454        H466   1.082       .  S
C455        C456   1.376       .  A
C455        H467   1.082       .  S
C456        H468   1.082       .  S
C457        C605   1.475       .  S
C458        C621   1.491       .  S
C459        C573   1.485       .  S
C460        C589   1.493       .  S
N471        C476   1.355       .  A
N471        C475   1.352       .  A
N471        H503   1.039       .  S
N472        C479   1.353       .  A
N472        C480   1.355       .  A
N473        C478   1.352       .  A
N473        C477   1.356       .  A
N473        H504   1.039   1_556  S
N474        C481   1.353       .  A
N474        C482   1.350       .  A
C475        C483   1.387       .  A
C475        C491   1.416       .  A
C476        C492   1.418       .  A
C476        C484   1.387       .  A
C477        C485   1.386       .  A
C477        C494   1.416       .  A
C478        C493   1.415       .  A
C478        C486   1.388       .  A
C479        C491   1.418       .  A
C479        C487   1.387       .  A
C480        C494   1.417       .  A
C480        C488   1.384       .  A
C481        C489   1.386   1_556  A
C481        C492   1.415       .  A
C482        C490   1.387   1_556  A
C482        C493   1.414       .  A
C483        C484   1.378       .  A
C483        H495   1.082       .  S
C484        H496   1.083       .  S
C485        C486   1.375       .  A
C485        H497   1.082       .  S
C486        H498   1.082       .  S
C487        C488   1.373       .  A
C487        H499   1.082       .  S
C488        H500   1.082       .  S
C489        C490   1.375       .  A
C489        H501   1.082       .  S
C490        H502   1.083       .  S
C491        C525   1.492       .  S
C492        C557   1.497       .  S
C493        C538   1.484       .  S
C494        C509   1.503       .  S
C505        C510   1.408       .  A
C505        H512   1.084       .  S
C506        C507   1.414   1_556  A
C507        C508   1.408       .  A
C507        C514   1.508       .  S
C508        C509   1.408   1_554  A
C508        H513   1.084       .  S
C510        C511   1.508       .  S
C511        H515   1.110       .  S
C511        H517   1.111       .  S
C514        H518   1.110       .  S
C514        H520   1.110       .  S
C521        C522   1.404       .  A
C521        C526   1.405       .  A
C521        H528   1.084       .  S
C523        C524   1.399       .  A
C523        C530   1.504       .  S
C524        H529   1.085       .  S
C525        C526   1.415       .  A
C526        C527   1.506       .  S
C527        H531   1.111       .  S
C527        H533   1.108       .  S
C530        H534   1.110       .  S
C530        H536   1.111       .  S
C537        C538   1.400       .  A
C537        C542   1.399       .  A
C537        H544   1.084       .  S
C539        C540   1.401       .  A
C539        C546   1.507       .  S
C540        H545   1.085       .  S
C541        C542   1.412   1_554  A
C542        C543   1.506       .  S
C543        H547   1.111       .  S
C543        H548   1.110       .  S
C546        H551   1.108       .  S
C546        H552   1.111       .  S
C553        C554   1.401   1_554  A
C553        C558   1.402       .  A
C553        H560   1.079       .  S
C555        C556   1.406       .  A
C555        C562   1.509       .  S
C556        H561   1.084       .  S
C557        C558   1.414   1_556  A
C558        C559   1.507       .  S
C559        H563   1.111       .  S
C559        H565   1.108       .  S
C562        H566   1.109       .  S
C562        H568   1.110       .  S
C569       C1266   1.403       .  A
C569        C574   1.404       .  A
C569        H576   1.084       .  S
C570       C1265   1.399       .  A
C570        C571   1.411       .  A
C571        C572   1.402       .  A
C571        C578   1.509       .  S
C572       C1269   1.404       .  A
C572        H577   1.084       .  S
C573       C1268   1.402   1_545  A
C573        C574   1.412       .  A
C574        C575   1.507       .  S
C575        H579   1.111       .  S
C575        H580   1.109       .  S
C575        H581   1.110       .  S
C578        H582   1.111       .  S
C578        H583   1.109       .  S
C578        H584   1.111       .  S
C585       C1282   1.403       .  A
C585        C590   1.405       .  A
C585        H592   1.080       .  S
C586       C1281   1.401       .  A
C586        C587   1.415       .  A
C587        C588   1.410       .  A
C587        C594   1.507       .  S
C588       C1285   1.405       .  A
C588        H593   1.084       .  S
C589       C1284   1.403   1_565  A
C589        C590   1.412       .  A
C590        C591   1.507       .  S
C591        H595   1.111       .  S
C591       H1292   1.110       .  S
C591        H597   1.109       .  S
C594        H598   1.110       .  S
C594       H1295   1.108       .  S
C594        H600   1.111       .  S
H596       C1287   1.110       .  S
H599       C1290   1.108       .  S
C601       C1298   1.400       .  A
C601        C606   1.402       .  A
C601        H608   1.082       .  S
C602       C1297   1.397       .  A
C602        C603   1.408   1_565  A
C603        C604   1.400       .  A
C603        C610   1.506       .  S
C604        C605   1.403   1_545  A
C604        H609   1.084       .  S
C605       C1302   1.412       .  A
C606       C1301   1.412       .  A
C606        C607   1.507       .  S
C607        H611   1.111       .  S
C607        H612   1.110       .  S
C607        H613   1.109       .  S
C610        H614   1.110       .  S
C610        H615   1.108       .  S
C610        H616   1.111       .  S
C617       C1314   1.399       .  A
C617        C622   1.402       .  A
C617        H624   1.082       .  S
C618       C1313   1.401   1_565  A
C618        C619   1.415       .  A
C619        C620   1.406       .  A
C619        C626   1.508       .  S
C620        C621   1.404       .  A
C620        H625   1.084       .  S
C621       C1318   1.415   1_565  A
C622       C1317   1.419       .  A
C622        C623   1.508       .  S
C623        H627   1.111       .  S
C623       H1324   1.106       .  S
C623        H629   1.110       .  S
C626        H630   1.109       .  S
C626       H1327   1.109       .  S
C626        H632   1.111       .  S
H628       C1319   1.107       .  S
H631       C1322   1.108       .  S
C633        C634   1.402       .  A
C633        C638   1.403       .  A
C633        H640   1.084       .  S
C634       C2027   1.414       .  A
C635       C2026   1.414   1_455  A
C635        C636   1.406       .  A
C635        C642   1.506       .  S
C636       C2029   1.404   1_455  A
C636        H641   1.084       .  S
C637       C2028   1.403       .  A
C637        C638   1.414       .  A
C637       C1762   1.490       .  S
C638        C639   1.507       .  S
C639        H643   1.109       .  S
C639        H644   1.110       .  S
C639        H645   1.109       .  S
C642        H646   1.109       .  S
C642        H647   1.109       .  S
C642        H648   1.111       .  S
C649       C2042   1.403   1_455  A
C649        C654   1.407       .  A
C649        H656   1.084       .  S
C650       C2041   1.401       .  A
C650        C651   1.415       .  A
C650       C1761   1.494       .  S
C651        C652   1.406       .  A
C651        C658   1.506       .  S
C652        C653   1.403       .  A
C652        H657   1.084       .  S
C653       C2046   1.416       .  A
C654       C2045   1.416       .  A
C654        C655   1.502       .  S
C655        H659   1.110       .  S
C655        H660   1.107       .  S
C655        H661   1.109       .  S
C658        H662   1.108       .  S
C658        H663   1.110       .  S
C658        H664   1.109       .  S
C665        C666   1.405       .  A
C665        C670   1.410       .  A
C665        H672   1.084       .  S
C666       C2059   1.412       .  A
C667       C2058   1.415   1_455  A
C667        C668   1.404       .  A
C667        C674   1.506       .  S
C668       C2061   1.404   1_455  A
C668        H673   1.084       .  S
C669       C2060   1.402       .  A
C669        C670   1.413       .  A
C669       C1764   1.495       .  S
C670        C671   1.505       .  S
C671        H675   1.111       .  S
C671        H676   1.111       .  S
C671        H677   1.110       .  S
C674        H678   1.109       .  S
C674        H679   1.109       .  S
C674        H680   1.111       .  S
C681        C682   1.402       .  A
C681        C686   1.402       .  A
C681        H688   1.084       .  S
C682       C2075   1.412       .  A
C682       C1763   1.485       .  S
C683       C2074   1.414   1_455  A
C683        C684   1.404       .  A
C683        C690   1.507       .  S
C684       C2077   1.401   1_455  A
C684        H689   1.084       .  S
C685       C2076   1.401       .  A
C685        C686   1.409       .  A
C686        C687   1.507       .  S
C687        H691   1.111       .  S
C687        H692   1.111       .  S
C687        H693   1.111       .  S
C690        H694   1.109       .  S
C690        H695   1.110       .  S
C690        H696   1.111       .  S
N697        C702   1.353   1_655  A
N697        C701   1.351       .  A
N697        H729   1.040       .  S
N698        C705   1.352       .  A
N698        C706   1.353       .  A
N699        C704   1.354       .  A
N699        C703   1.354       .  A
N699        H730   1.041       .  S
N700        C707   1.351       .  A
N700        C708   1.350       .  A
C701        C709   1.388   1_655  A
C701        C717   1.415       .  A
C702        C718   1.414   1_455  A
C702        C710   1.386       .  A
C703        C711   1.387   1_655  A
C703        C720   1.417       .  A
C704        C719   1.417       .  A
C704        C712   1.387   1_655  A
C705        C717   1.416       .  A
C705        C713   1.387       .  A
C706        C720   1.415       .  A
C706        C714   1.386       .  A
C707        C715   1.385       .  A
C707        C718   1.411       .  A
C708        C716   1.386       .  A
C708        C719   1.411       .  A
C709        C710   1.379       .  A
C709        H721   1.082       .  S
C710        H722   1.082       .  S
C711        C712   1.378       .  A
C711        H723   1.082       .  S
C712        H724   1.082       .  S
C713        C714   1.375       .  A
C713        H725   1.082       .  S
C714        H726   1.082       .  S
C715        C716   1.375       .  A
C715        H727   1.082       .  S
C716        H728   1.082       .  S
C717       C2390   1.489       .  S
C718       C2377   1.493       .  S
C719       C2422   1.493       .  S
C720       C2409   1.496       .  S
O731        C742   1.292       .  A
O731      Eu1115   2.463   1_554  S
O732        C743   1.292       .  A
O732      Eu1114   2.468   1_554  S
O733        C744   1.293       .  A
O734        C745   1.291       .  A
O734      Eu1435   2.457       .  S
O735      Eu1117   2.459       .  S
O736      Eu1116   2.477   1_544  S
O737        C743   1.291       .  A
O737       Eu739   2.461       .  S
O738        C742   1.292       .  A
Eu739      O1430   2.464       .  S
Eu739      O1445   2.361   1_565  S
Eu739      O2132   2.355       .  S
Eu739       O747   2.358       .  S
O740      Eu2131   2.355       .  S
O740      Eu1117   2.359       .  S
O740      Eu2506   2.355       .  S
O741      Eu1115   2.362   1_554  S
C742       C1033   1.474       .  S
C743       C1014   1.478       .  S
C744        C966   1.488       .  S
C745        C950   1.473       .  S
H746        O747   0.965       .  S
O747      Eu1116   2.348   1_554  S
O747      Eu1114   2.359   1_554  S
H748        O749   0.966       .  S
O749      Eu1435   2.365       .  S
O749      Eu2507   2.359       .  S
O750        C773   1.294       .  A
O750       Eu766   2.480       .  S
O751        C774   1.293       .  A
O751       Eu767   2.476       .  S
O752        C775   1.292       .  A
O752       Eu768   2.470       .  S
O753        C776   1.293       .  A
O753       Eu769   2.472       .  S
O754        C777   1.290       .  A
O755        C778   1.291       .  A
O756        C779   1.291       .  A
O756       Eu770   2.457       .  S
O757        C780   1.294       .  A
O757      Eu2162   2.480       .  S
O758        C779   1.288       .  A
O758       Eu768   2.436       .  S
O759        C780   1.290       .  A
O759       Eu769   2.457       .  S
O760        C775   1.291       .  A
O760       Eu766   2.462       .  S
O761        C778   1.290       .  A
O761       Eu767   2.455       .  S
O762        C777   1.292       .  A
O762      Eu2159   2.467       .  S
O763        C776   1.288       .  A
O763      Eu2158   2.440   1_455  S
O764        C773   1.288       .  A
O764       Eu770   2.444       .  S
O765        C774   1.289       .  A
Eu766      O1080   2.462       .  S
Eu766      O2155   2.451       .  S
Eu766      O2480   2.366       .  S
Eu766      O1095   2.353       .  S
Eu766      O2176   2.358       .  S
Eu766       O772   2.345       .  S
Eu767      O1079   2.440       .  S
Eu767      O2154   2.456       .  S
Eu767      O1089   2.366       .  S
Eu767      O2489   2.361       .  S
Eu767      O2163   2.344       .  S
Eu767       O782   2.344       .  S
Eu768      O1084   2.469       .  S
Eu768      O1095   2.340       .  S
Eu768       O772   2.357       .  S
Eu769      O1083   2.439       .  S
Eu769      O1088   2.359       .  S
Eu769       O784   2.358       .  S
Eu770      O2149   2.476       .  S
Eu770      O1467   2.347   1_565  S
Eu770      O2176   2.350       .  S
Eu770       O772   2.354       .  S
O771      Eu2159   2.355       .  S
O771      Eu1466   2.343       .  S
C773       C1001   1.488       .  S
C774        C982   1.483       .  S
C775        C854   1.476       .  S
C776        C889   1.467       .  S
C777        C902   1.475       .  S
C778        C870   1.471       .  S
C779        C918   1.464   1_565  S
C780        C934   1.481   1_565  S
H781        O782   0.966       .  S
H783        O784   0.966       .  S
O784      Eu2158   2.366   1_455  S
O784      Eu2162   2.352       .  S
N785        C790   1.355       .  A
N785        C789   1.348       .  A
N785        H817   1.040       .  S
N786        C793   1.350       .  A
N786        C794   1.354       .  A
N787        C792   1.350       .  A
N787        C791   1.356       .  A
N787        H818   1.039       .  S
N788        C795   1.354       .  A
N788        C796   1.348       .  A
C789        C797   1.388       .  A
C789        C805   1.411       .  A
C790        C806   1.412       .  A
C790        C798   1.385       .  A
C791        C799   1.386       .  A
C791        C808   1.416       .  A
C792        C807   1.416       .  A
C792        C800   1.389       .  A
C793        C805   1.414       .  A
C793        C801   1.387       .  A
C794        C808   1.417       .  A
C794        C802   1.386       .  A
C795        C803   1.384       .  A
C795        C806   1.412       .  A
C796        C804   1.388       .  A
C796        C807   1.412       .  A
C797        C798   1.376       .  A
C797        H809   1.082       .  S
C798        H810   1.082       .  S
C799        C800   1.377       .  A
C799        H811   1.082       .  S
C800        H812   1.082       .  S
C801        C802   1.374       .  A
C801        H813   1.082       .  S
C802        H814   1.082       .  S
C803        C804   1.374       .  A
C803        H815   1.082       .  S
C804        H816   1.082       .  S
C805        C953   1.480       .  S
C806        C969   1.500       .  S
C807        C921   1.477       .  S
C808        C937   1.502       .  S
N819        C824   1.352       .  A
N819        C823   1.350       .  A
N819        H851   1.039       .  S
N820        C827   1.352       .  A
N820        C828   1.352       .  A
N821        C826   1.353       .  A
N821        C825   1.354       .  A
N821        H852   1.037       .  S
N822        C829   1.350       .  A
N822        C830   1.349       .  A
C823        C831   1.387       .  A
C823        C839   1.411       .  A
C824        C840   1.412       .  A
C824        C832   1.387       .  A
C825        C833   1.386       .  A
C825        C842   1.416       .  A
C826        C841   1.417       .  A
C826        C834   1.388       .  A
C827        C839   1.414       .  A
C827        C835   1.386       .  A
C828        C842   1.415       .  A
C828        C836   1.386       .  A
C829        C837   1.386       .  A
C829        C840   1.411       .  A
C830        C838   1.387       .  A
C830        C841   1.411       .  A
C831        C832   1.376       .  A
C831        H843   1.082       .  S
C832        H844   1.083       .  S
C833        C834   1.376       .  A
C833        H845   1.082       .  S
C834        H846   1.082       .  S
C835        C836   1.373       .  A
C835        H847   1.082       .  S
C836        H848   1.082       .  S
C837        C838   1.373       .  A
C837        H849   1.082       .  S
C838        H850   1.082       .  S
C839        C873   1.486       .  S
C840        C905   1.486       .  S
C841        C886   1.483       .  S
C842        C857   1.491       .  S
C853       C1202   1.403       .  A
C853        C858   1.402       .  A
C853        H860   1.084       .  S
C854       C1201   1.403       .  A
C854        C855   1.412       .  A
C855        C856   1.405       .  A
C855        C862   1.506       .  S
C856        C857   1.402       .  A
C856        H861   1.084       .  S
C857       C1206   1.413       .  A
C858       C1205   1.415       .  A
C858        C859   1.508       .  S
C859        H863   1.111       .  S
C859       H1212   1.108       .  S
C859        H865   1.110       .  S
C862        H866   1.109       .  S
C862       H1215   1.111       .  S
C862        H868   1.110       .  S
H864       C1207   1.111       .  S
H867       C1210   1.111       .  S
C869        C870   1.403       .  A
C869        C874   1.401       .  A
C869        H876   1.085       .  S
C870       C1219   1.414       .  A
C871       C1218   1.416   1_554  A
C871        C872   1.402       .  A
C871        C878   1.506       .  S
C872       C1221   1.402   1_554  A
C872        H877   1.084       .  S
C873       C1220   1.403       .  A
C873        C874   1.413       .  A
C874        C875   1.507       .  S
C875        H879   1.111       .  S
C875       H1228   1.110       .  S
C875        H881   1.108       .  S
C878        H882   1.110       .  S
C878       H1231   1.109       .  S
C878        H884   1.111       .  S
H880       C1223   1.110       .  S
H883       C1226   1.110       .  S
C885        C886   1.402       .  A
C885        C890   1.402       .  A
C885        H892   1.084       .  S
C886       C1235   1.411       .  A
C887       C1234   1.416       .  A
C887        C888   1.404       .  A
C887        C894   1.508       .  S
C888       C1237   1.404       .  A
C888        H893   1.085       .  S
C889       C1236   1.401       .  A
C889        C890   1.413       .  A
C890        C891   1.508       .  S
C891        H895   1.111       .  S
C891        H896   1.110       .  S
C891       H1245   1.110       .  S
C894       H1246   1.110       .  S
C894        H899   1.108       .  S
C894        H900   1.110       .  S
H897       C1239   1.109       .  S
H898       C1242   1.110       .  S
C901        C902   1.402       .  A
C901        C906   1.402       .  A
C901        H908   1.080       .  S
C902       C1251   1.414       .  A
C903       C1250   1.417       .  A
C903        C904   1.406       .  A
C903        C910   1.507       .  S
C904       C1253   1.404       .  A
C904        H909   1.084       .  S
C905       C1252   1.403       .  A
C905        C906   1.412       .  A
C906        C907   1.508       .  S
C907        H911   1.111       .  S
C907       H1260   1.111       .  S
C907        H913   1.109       .  S
C910        H914   1.109       .  S
C910       H1263   1.108       .  S
C910        H916   1.111       .  S
H912       C1255   1.110       .  S
H915       C1258   1.109       .  S
C917        C922   1.397       .  A
C917        H924   1.085       .  S
C918        C919   1.410   1_545  A
C919        C920   1.399       .  A
C919        C926   1.508       .  S
C920        H925   1.084       .  S
C921        C922   1.413       .  A
C922        C923   1.508       .  S
C923        H927   1.110       .  S
C923        H928   1.110       .  S
C923        H929   1.108       .  S
C926        H930   1.111       .  S
C926        H931   1.110       .  S
C926        H932   1.111       .  S
C933        C938   1.403       .  A
C933        H940   1.077       .  S
C934        C935   1.414       .  A
C935        C936   1.408       .  A
C935        C942   1.508       .  S
C936        H941   1.084       .  S
C937        C938   1.416       .  A
C938        C939   1.507       .  S
C939        H943   1.111       .  S
C939        H945   1.110       .  S
C942        H946   1.111       .  S
C942        H948   1.107       .  S
C949        C954   1.399       .  A
C949        H956   1.075       .  S
C950        C951   1.410       .  A
C951        C952   1.403       .  A
C951        C958   1.502       .  S
C952        C953   1.404       .  A
C952        H957   1.084       .  S
C954        C955   1.508       .  S
C955        H959   1.110       .  S
C955        H960   1.111       .  S
C955        H961   1.108       .  S
C958        H962   1.111       .  S
C958        H963   1.108       .  S
C958        H964   1.111       .  S
C965        C970   1.407       .  A
C965        H972   1.081       .  S
C966        C967   1.417       .  A
C967        C968   1.408       .  A
C967        C974   1.508       .  S
C968        C969   1.405       .  A
C968        H973   1.084       .  S
C970        C971   1.507       .  S
C971        H975   1.111       .  S
C971        H977   1.108       .  S
C974        H978   1.109       .  S
C974        H980   1.111       .  S
C981        C982   1.404       .  A
C981        C986   1.405       .  A
C981        H988   1.084       .  S
C982       C2375   1.417       .  A
C983       C2374   1.417       .  A
C983        C984   1.405       .  A
C983        C990   1.509       .  S
C984       C2377   1.405   1_455  A
C984        H989   1.085       .  S
C985       C2376   1.402       .  A
C985        C986   1.414       .  A
C985       C2110   1.491       .  S
C986        C987   1.508       .  S
C987        H991   1.110       .  S
C987        H992   1.110       .  S
C987        H993   1.109       .  S
C990        H994   1.110       .  S
C990        H995   1.107       .  S
C990        H996   1.111       .  S
C997       C2390   1.402   1_455  A
C997       C1002   1.401       .  A
C997       H1004   1.084       .  S
C998       C2389   1.401       .  A
C998        C999   1.418       .  A
C998       C2109   1.493       .  S
C999       C1000   1.406       .  A
C999       C1006   1.508       .  S
C1000      C1001   1.404       .  A
C1000      H1005   1.085       .  S
C1001      C2394   1.419       .  A
C1002      C2393   1.414   1_455  A
C1002      C1003   1.506       .  S
C1003      H1007   1.111       .  S
C1003      H1008   1.109       .  S
C1003      H1009   1.110       .  S
C1006      H1010   1.110       .  S
C1006      H1011   1.108       .  S
C1006      H1012   1.110       .  S
C1013      C1014   1.404       .  A
C1013      C1018   1.407       .  A
C1013      H1020   1.084       .  S
C1014      C2407   1.413       .  A
C1015      C2406   1.414   1_455  A
C1015      C1016   1.404       .  A
C1015      C1022   1.500       .  S
C1016      C2409   1.402   1_455  A
C1016      H1021   1.084       .  S
C1017      C2408   1.401       .  A
C1017      C1018   1.412       .  A
C1017      C2112   1.488       .  S
C1018      C1019   1.506       .  S
C1019      H1023   1.111       .  S
C1019      H1024   1.111       .  S
C1019      H1025   1.110       .  S
C1022      H1026   1.109       .  S
C1022      H1027   1.110       .  S
C1022      H1028   1.111       .  S
C1029      C1030   1.402       .  A
C1029      C1034   1.403       .  A
C1029      H1036   1.084       .  S
C1030      C2423   1.413       .  A
C1030      C2111   1.487       .  S
C1031      C2422   1.416   1_455  A
C1031      C1032   1.407       .  A
C1031      C1038   1.508       .  S
C1032      C2425   1.404   1_455  A
C1032      H1037   1.084       .  S
C1033      C2424   1.403       .  A
C1033      C1034   1.413       .  A
C1034      C1035   1.507       .  S
C1035      H1039   1.111       .  S
C1035      H1040   1.110       .  S
C1035      H1041   1.110       .  S
C1038      H1042   1.108       .  S
C1038      H1043   1.110       .  S
C1038      H1044   1.111       .  S
N1045      C1050   1.354       .  A
N1045      C1049   1.351       .  A
N1045      H1077   1.041       .  S
N1046      C1053   1.351       .  A
N1046      C1054   1.351       .  A
N1047      C1052   1.354       .  A
N1047      C1051   1.355       .  A
N1047      H1078   1.039       .  S
N1048      C1055   1.352       .  A
N1048      C1056   1.351       .  A
C1049      C1057   1.387   1_655  A
C1049      C1065   1.412       .  A
C1050      C1066   1.413       .  A
C1050      C1058   1.387   1_655  A
C1051      C1059   1.387   1_655  A
C1051      C1068   1.419       .  A
C1052      C1067   1.418       .  A
C1052      C1060   1.387   1_655  A
C1053      C1065   1.413       .  A
C1053      C1061   1.386       .  A
C1054      C1068   1.413       .  A
C1054      C1062   1.386       .  A
C1055      C1063   1.385       .  A
C1055      C1066   1.413       .  A
C1056      C1064   1.387       .  A
C1056      C1067   1.414       .  A
C1057      C1058   1.375       .  A
C1057      H1069   1.082       .  S
C1058      H1070   1.082       .  S
C1059      C1060   1.378       .  A
C1059      H1071   1.082       .  S
C1060      H1072   1.082       .  S
C1061      C1062   1.374       .  A
C1061      H1073   1.082       .  S
C1062      H1074   1.082       .  S
C1063      C1064   1.375       .  A
C1063      H1075   1.082       .  S
C1064      H1076   1.082       .  S
C1065      C2738   1.487       .  S
C1066      C2725   1.495       .  S
C1067      C2770   1.490       .  S
C1068      C2757   1.493       .  S
O1079      C1090   1.288       .  A
O1080      C1091   1.291       .  A
O1081      C1092   1.291       .  A
O1082      C1093   1.288       .  A
O1082     Eu1783   2.450       .  S
O1085      C1091   1.290       .  A
O1085     Eu1087   2.455       .  S
O1086      C1090   1.294       .  A
Eu1087     O1778   2.461   1_565  S
Eu1087     O1793   2.359   1_565  S
Eu1087     O2480   2.351       .  S
Eu1087     O1095   2.352       .  S
O1088     Eu2479   2.356       .  S
O1088     Eu2158   2.358   1_455  S
C1090      C1381   1.470       .  S
C1091      C1362   1.476       .  S
C1092      C1314   1.485       .  S
C1093      C1298   1.466       .  S
H1094      O1095   0.966       .  S
H1096      O1097   0.965       .  S
O1097     Eu1783   2.354       .  S
O1097     Eu2159   2.363       .  S
O1098      C1121   1.291       .  A
O1098     Eu1114   2.463       .  S
O1099      C1122   1.292       .  A
O1099     Eu1115   2.462       .  S
O1100      C1123   1.289       .  A
O1100     Eu1116   2.452       .  S
O1101      C1124   1.292       .  A
O1101     Eu1117   2.462       .  S
O1102      C1125   1.292   1_554  A
O1103      C1126   1.290       .  A
O1104      C1127   1.290   1_565  A
O1104     Eu1118   2.453       .  S
O1105      C1128   1.293       .  A
O1105     Eu2510   2.474       .  S
O1106      C1127   1.291       .  A
O1106     Eu1116   2.459   1_545  S
O1107      C1128   1.292       .  A
O1107     Eu1117   2.470   1_556  S
O1108      C1123   1.291       .  A
O1108     Eu1114   2.461       .  S
O1109      C1126   1.293       .  A
O1109     Eu1115   2.469       .  S
O1110      C1125   1.291       .  A
O1110     Eu2507   2.463   1_556  S
O1111      C1124   1.290       .  A
O1111     Eu2506   2.451       .  S
O1112      C1121   1.290       .  A
O1112     Eu1118   2.454       .  S
O1113      C1122   1.294       .  A
Eu1114     O2503   2.466       .  S
Eu1114     O2132   2.357   1_556  S
Eu1114     O2524   2.363       .  S
Eu1114     O1120   2.346       .  S
Eu1115     O2502   2.464       .  S
Eu1115     O2141   2.364   1_556  S
Eu1115     O2511   2.348       .  S
Eu1115     O1130   2.353       .  S
Eu1116     O1120   2.355       .  S
Eu1117     O1132   2.360   1_554  S
Eu1118     O2497   2.463       .  S
Eu1118     O1815   2.345   1_565  S
Eu1118     O2524   2.351       .  S
Eu1118     O1120   2.349       .  S
O1119     Eu2507   2.353   1_556  S
O1119     Eu1814   2.353       .  S
C1121      C1349   1.479       .  S
C1122      C1330   1.488       .  S
C1123      C1202   1.473       .  S
C1124      C1237   1.475       .  S
C1125      C1250   1.486       .  S
C1126      C1218   1.483       .  S
C1127      C1266   1.471       .  S
C1128      C1282   1.482       .  S
H1129      O1130   0.966       .  S
H1131      O1132   0.966       .  S
O1132     Eu2506   2.368   1_556  S
O1132     Eu2510   2.357       .  S
N1133      C1138   1.356       .  A
N1133      C1137   1.352       .  A
N1133      H1165   1.038       .  S
N1134      C1141   1.349       .  A
N1134      C1142   1.353       .  A
N1135      C1140   1.350       .  A
N1135      C1139   1.356       .  A
N1135      H1166   1.038       .  S
N1136      C1143   1.355       .  A
N1136      C1144   1.351       .  A
C1137      C1145   1.389       .  A
C1137      C1153   1.416       .  A
C1138      C1154   1.417       .  A
C1138      C1146   1.386       .  A
C1139      C1147   1.386       .  A
C1139      C1156   1.416       .  A
C1140      C1155   1.416       .  A
C1140      C1148   1.389       .  A
C1141      C1153   1.413       .  A
C1141      C1149   1.388       .  A
C1142      C1156   1.413       .  A
C1142      C1150   1.385       .  A
C1143      C1151   1.386       .  A
C1143      C1154   1.417       .  A
C1144      C1152   1.387       .  A
C1144      C1155   1.416       .  A
C1145      C1146   1.375       .  A
C1145      H1157   1.082       .  S
C1146      H1158   1.082       .  S
C1147      C1148   1.376       .  A
C1147      H1159   1.082       .  S
C1148      H1160   1.082       .  S
C1149      C1150   1.374       .  A
C1149      H1161   1.082       .  S
C1150      H1162   1.082       .  S
C1151      C1152   1.373       .  A
C1151      H1163   1.082       .  S
C1152      H1164   1.082       .  S
C1153      C1301   1.481       .  S
C1154      C1317   1.502       .  S
C1155      C1269   1.482       .  S
C1156      C1285   1.497       .  S
N1167      C1172   1.353       .  A
N1167      C1171   1.351       .  A
N1167      H1199   1.040   1_556  S
N1168      C1175   1.350       .  A
N1168      C1176   1.351       .  A
N1169      C1174   1.350       .  A
N1169      C1173   1.351       .  A
N1169      H1200   1.040   1_556  S
N1170      C1177   1.351   1_556  A
N1170      C1178   1.350   1_556  A
C1171      C1179   1.387       .  A
C1171      C1187   1.416       .  A
C1172      C1188   1.416       .  A
C1172      C1180   1.387       .  A
C1173      C1181   1.387       .  A
C1173      C1190   1.411       .  A
C1174      C1189   1.412   1_556  A
C1174      C1182   1.388       .  A
C1175      C1187   1.413       .  A
C1175      C1183   1.387   1_556  A
C1176      C1190   1.410       .  A
C1176      C1184   1.385   1_556  A
C1177      C1185   1.386       .  A
C1177      C1188   1.413   1_554  A
C1178      C1186   1.386       .  A
C1178      C1189   1.411       .  A
C1179      C1180   1.380       .  A
C1179      H1191   1.082       .  S
C1180      H1192   1.082       .  S
C1181      C1182   1.378       .  A
C1181      H1193   1.082       .  S
C1182      H1194   1.082       .  S
C1183      C1184   1.374       .  A
C1183      H1195   1.082       .  S
C1184      H1196   1.082       .  S
C1185      C1186   1.375       .  A
C1185      H1197   1.082       .  S
C1186      H1198   1.082       .  S
C1187      C1221   1.492       .  S
C1188      C1253   1.493       .  S
C1189      C1234   1.485       .  S
C1190      C1205   1.487       .  S
C1201      C1206   1.406       .  A
C1201      H1208   1.084       .  S
C1202      C1203   1.412   1_556  A
C1203      C1204   1.402       .  A
C1203      C1210   1.508       .  S
C1204      C1205   1.403   1_554  A
C1204      H1209   1.084       .  S
C1206      C1207   1.506       .  S
C1207      H1211   1.111       .  S
C1207      H1213   1.110       .  S
C1210      H1214   1.110       .  S
C1210      H1216   1.110       .  S
C1217      C1218   1.405       .  A
C1217      C1222   1.405       .  A
C1217      H1224   1.084       .  S
C1219      C1220   1.402       .  A
C1219      C1226   1.507       .  S
C1220      H1225   1.085       .  S
C1221      C1222   1.417       .  A
C1222      C1223   1.508       .  S
C1223      H1227   1.110       .  S
C1223      H1229   1.108       .  S
C1226      H1230   1.107       .  S
C1226      H1232   1.110       .  S
C1233      C1234   1.400   1_556  A
C1233      C1238   1.400       .  A
C1233      H1240   1.084       .  S
C1235      C1236   1.402       .  A
C1235      C1242   1.506       .  S
C1236      H1241   1.084       .  S
C1237      C1238   1.414   1_554  A
C1238      C1239   1.509       .  S
C1239      H1243   1.111       .  S
C1239      H1244   1.110       .  S
C1242      H1247   1.111       .  S
C1242      H1248   1.111       .  S
C1249      C1250   1.403   1_554  A
C1249      C1254   1.404       .  A
C1249      H1256   1.078       .  S
C1251      C1252   1.404       .  A
C1251      C1258   1.508       .  S
C1252      H1257   1.084       .  S
C1253      C1254   1.413   1_556  A
C1254      C1255   1.508       .  S
C1255      H1259   1.111       .  S
C1255      H1261   1.108       .  S
C1258      H1262   1.109       .  S
C1258      H1264   1.111       .  S
C1265      C1270   1.397       .  A
C1265      H1272   1.085       .  S
C1266      C1267   1.412   1_545  A
C1267      C1268   1.402       .  A
C1267      C1274   1.509       .  S
C1268      H1273   1.084       .  S
C1269      C1270   1.415       .  A
C1270      C1271   1.508       .  S
C1271      H1275   1.110       .  S
C1271      H1276   1.111       .  S
C1271      H1277   1.107       .  S
C1274      H1278   1.111       .  S
C1274      H1279   1.109       .  S
C1274      H1280   1.111       .  S
C1281      C1286   1.405       .  A
C1281      H1288   1.079       .  S
C1282      C1283   1.417   1_565  A
C1283      C1284   1.406       .  A
C1283      C1290   1.507       .  S
C1284      H1289   1.084       .  S
C1285      C1286   1.413       .  A
C1286      C1287   1.507       .  S
C1287      H1291   1.110       .  S
C1287      H1293   1.109       .  S
C1290      H1294   1.110       .  S
C1290      H1296   1.111       .  S
C1297      C1302   1.396       .  A
C1297      H1304   1.082       .  S
C1298      C1299   1.409       .  A
C1299      C1300   1.401       .  A
C1299      C1306   1.504       .  S
C1300      C1301   1.401       .  A
C1300      H1305   1.084       .  S
C1302      C1303   1.507       .  S
C1303      H1307   1.111       .  S
C1303      H1308   1.110       .  S
C1303      H1309   1.108       .  S
C1306      H1310   1.109       .  S
C1306      H1311   1.107       .  S
C1306      H1312   1.111       .  S
C1313      C1318   1.402       .  A
C1313      H1320   1.078       .  S
C1314      C1315   1.418       .  A
C1315      C1316   1.409       .  A
C1315      C1322   1.508       .  S
C1316      C1317   1.407       .  A
C1316      H1321   1.084       .  S
C1318      C1319   1.508       .  S
C1319      H1323   1.111       .  S
C1319      H1325   1.111       .  S
C1322      H1326   1.109       .  S
C1322      H1328   1.111       .  S
C1329      C1330   1.404       .  A
C1329      C1334   1.404       .  A
C1329      H1336   1.085       .  S
C1330      C2723   1.419       .  A
C1331      C2722   1.415       .  A
C1331      C1332   1.407       .  A
C1331      C1338   1.506       .  S
C1332      C2725   1.404   1_455  A
C1332      H1337   1.084       .  S
C1333      C2724   1.407       .  A
C1333      C1334   1.419       .  A
C1333      C2458   1.502       .  S
C1334      C1335   1.509       .  S
C1335      H1339   1.110       .  S
C1335      H1340   1.106       .  S
C1335      H1341   1.111       .  S
C1338      H1342   1.109       .  S
C1338      H1343   1.106       .  S
C1338      H1344   1.111       .  S
C1345      C2738   1.401   1_455  A
C1345      C1350   1.400       .  A
C1345      H1352   1.084       .  S
C1346      C2737   1.401       .  A
C1346      C1347   1.416       .  A
C1346      C2457   1.490       .  S
C1347      C1348   1.404       .  A
C1347      C1354   1.508       .  S
C1348      C1349   1.404       .  A
C1348      H1353   1.084       .  S
C1349      C2742   1.414       .  A
C1350      C2741   1.413   1_455  A
C1350      C1351   1.505       .  S
C1351      H1355   1.111       .  S
C1351      H1356   1.109       .  S
C1351      H1357   1.109       .  S
C1354      H1358   1.111       .  S
C1354      H1359   1.108       .  S
C1354      H1360   1.110       .  S
C1361      C1362   1.403       .  A
C1361      C1366   1.404       .  A
C1361      H1368   1.084       .  S
C1362      C2755   1.412       .  A
C1363      C2754   1.415   1_455  A
C1363      C1364   1.408       .  A
C1363      C1370   1.505       .  S
C1364      C2757   1.404   1_455  A
C1364      H1369   1.084       .  S
C1365      C2756   1.403       .  A
C1365      C1366   1.416       .  A
C1365      C2460   1.491       .  S
C1366      C1367   1.507       .  S
C1367      H1371   1.111       .  S
C1367      H1372   1.108       .  S
C1367      H1373   1.110       .  S
C1370      H1374   1.110       .  S
C1370      H1375   1.110       .  S
C1370      H1376   1.111       .  S
C1377      C1378   1.402       .  A
C1377      C1382   1.403       .  A
C1377      H1384   1.084       .  S
C1378      C2771   1.412       .  A
C1378      C2459   1.486       .  S
C1379      C2770   1.413   1_455  A
C1379      C1380   1.404       .  A
C1379      C1386   1.507       .  S
C1380      C2773   1.401   1_455  A
C1380      H1385   1.082       .  S
C1381      C2772   1.402       .  A
C1381      C1382   1.412       .  A
C1382      C1383   1.507       .  S
C1383      H1387   1.111       .  S
C1383      H1388   1.110       .  S
C1383      H1389   1.110       .  S
C1386      H1390   1.110       .  S
C1386      H1391   1.110       .  S
C1386      H1392   1.111       .  S
N1393      C1398   1.352       .  A
N1393      C1397   1.353       .  A
N1393      H1425   1.040       .  S
N1394      C1401   1.352       .  A
N1394      C1402   1.352       .  A
N1395      C1400   1.356       .  A
N1395      C1399   1.353       .  A
N1395      H1426   1.041       .  S
N1396      C1403   1.349       .  A
N1396      C1404   1.351       .  A
C1397      C1405   1.387       .  A
C1397      C1413   1.414       .  A
C1398      C1414   1.416       .  A
C1398      C1406   1.388       .  A
C1399      C1407   1.386       .  A
C1399      C1416   1.415       .  A
C1400      C1415   1.417       .  A
C1400      C1408   1.386       .  A
C1401      C1413   1.414       .  A
C1401      C1409   1.386       .  A
C1402      C1416   1.414       .  A
C1402      C1410   1.386       .  A
C1403      C1411   1.388       .  A
C1403      C1414   1.412       .  A
C1404      C1412   1.386       .  A
C1404      C1415   1.412       .  A
C1405      C1406   1.378       .  A
C1405      H1417   1.083       .  S
C1406      H1418   1.082       .  S
C1407      C1408   1.377       .  A
C1407      H1419   1.082       .  S
C1408      H1420   1.082       .  S
C1409      C1410   1.375       .  A
C1409      H1421   1.082       .  S
C1410      H1422   1.082       .  S
C1411      C1412   1.375       .  A
C1411      H1423   1.082       .  S
C1412      H1424   1.082       .  S
O1427      C1438   1.294       .  A
O1427     Eu1811   2.476   1_554  S
O1428      C1439   1.292       .  A
O1428     Eu1810   2.461       .  S
O1429      C1440   1.293       .  A
O1429     Eu2131   2.473   1_655  S
O1430      C1441   1.291       .  A
O1431      C2137   1.290       .  A
O1431     Eu1813   2.455       .  S
O1432      C2136   1.295       .  A
O1432     Eu1812   2.482       .  S
O1433      C1439   1.292       .  A
O1433     Eu1435   2.464       .  S
O1434      C1438   1.293       .  A
O1434     Eu2131   2.466   1_545  S
Eu1435     O2125   2.463   1_455  S
Eu1435     O2130   2.460       .  S
Eu1435     O2133   2.359   1_455  S
Eu1435     O1443   2.353   1_455  S
O1436     Eu1813   2.359       .  S
O1437     Eu2131   2.357   1_645  S
O1437     Eu1811   2.363   1_654  S
O1437     Eu2508   2.356   1_544  S
C1438      C1729   1.488   1_455  S
C1439      C1710   1.481   1_455  S
C1440      C1662   1.488       .  S
C1440      O2128   1.294       .  A
C1441      C1646   1.473       .  S
C1441      O2127   1.290       .  A
H1442      O1443   0.965       .  S
O1443     Eu1812   2.343       .  S
O1443     Eu1810   2.351   1_655  S
H1444      O1445   0.965       .  S
O1445     Eu2509   2.364   1_545  S
O1446      C1469   1.293       .  A
O1446     Eu1462   2.469   1_655  S
O1447      C1470   1.290       .  A
O1447     Eu1463   2.457       .  S
O1448      C1471   1.291       .  A
O1448     Eu1464   2.460       .  S
O1449      C1472   1.293       .  A
O1449     Eu1465   2.467       .  S
O1450      C1473   1.294       .  A
O1450     Eu2161   2.476   1_545  S
O1451      C1474   1.287       .  A
O1451     Eu2160   2.436   1_545  S
O1452      C1475   1.289       .  A
O1452     Eu1466   2.449   1_655  S
O1453      C1476   1.291       .  A
O1454      C1475   1.292       .  A
O1454     Eu1464   2.464       .  S
O1455      C1476   1.291       .  A
O1455     Eu1465   2.463       .  S
O1456      C1471   1.292       .  A
O1456     Eu1462   2.469   1_655  S
O1457      C1474   1.292       .  A
O1457     Eu1463   2.466   1_655  S
O1458      C1473   1.292       .  A
O1459      C1472   1.289       .  A
O1460      C1469   1.290   1_455  A
O1460     Eu1466   2.453       .  S
O1461      C1470   1.293       .  A
O1461     Eu2162   2.469   1_545  S
Eu1462     O1776   2.471   1_455  S
Eu1462     O1791   2.345   1_455  S
Eu1462     O1468   2.343   1_455  S
Eu1463     O1775   2.447   1_455  S
Eu1463     O1785   2.358   1_455  S
Eu1463     O1478   2.343   1_455  S
Eu1464     O1780   2.478       .  S
Eu1464     O2147   2.451       .  S
Eu1464     O2481   2.351       .  S
Eu1464     O1791   2.344       .  S
Eu1464     O2174   2.360       .  S
Eu1464     O1468   2.352       .  S
Eu1465     O1779   2.462       .  S
Eu1465     O2146   2.469       .  S
Eu1465     O1784   2.365       .  S
Eu1465     O2489   2.348       .  S
Eu1465     O2163   2.351       .  S
Eu1465     O1480   2.365       .  S
Eu1466     O2157   2.468       .  S
Eu1466     O2174   2.362   1_455  S
Eu1466     O1468   2.360   1_455  S
O1467     Eu2161   2.347   1_545  S
C1469      C1697   1.480       .  S
C1470      C1678   1.480       .  S
C1471      C1550   1.479       .  S
C1472      C1585   1.471       .  S
C1473      C1598   1.494       .  S
C1474      C1566   1.472       .  S
C1475      C1614   1.472       .  S
C1476      C1630   1.477       .  S
H1477      O1478   0.965       .  S
O1478     Eu2160   2.361   1_545  S
O1478     Eu2162   2.349   1_645  S
H1479      O1480   0.966       .  S
N1481      C1486   1.356       .  A
N1481      C1485   1.353       .  A
N1481      H1513   1.037   1_565  S
N1482      C1489   1.352       .  A
N1482      C1490   1.354       .  A
N1483      C1488   1.352       .  A
N1483      C1487   1.355       .  A
N1483      H1514   1.037   1_565  S
N1484      C1491   1.355       .  A
N1484      C1492   1.352       .  A
C1485      C1493   1.387       .  A
C1485      C1501   1.417       .  A
C1486      C1502   1.419       .  A
C1486      C1494   1.386       .  A
C1487      C1495   1.386       .  A
C1487      C1504   1.415       .  A
C1488      C1503   1.416       .  A
C1488      C1496   1.389       .  A
C1489      C1501   1.416       .  A
C1489      C1497   1.387       .  A
C1490      C1504   1.416       .  A
C1490      C1498   1.386       .  A
C1491      C1499   1.386   1_565  A
C1491      C1502   1.419       .  A
C1492      C1500   1.387   1_565  A
C1492      C1503   1.417       .  A
C1493      C1494   1.375       .  A
C1493      H1505   1.082       .  S
C1494      H1506   1.082       .  S
C1495      C1496   1.374       .  A
C1495      H1507   1.083       .  S
C1496      H1508   1.082       .  S
C1497      C1498   1.373       .  A
C1497      H1509   1.082       .  S
C1498      H1510   1.082       .  S
C1499      C1500   1.375       .  A
C1499      H1511   1.082       .  S
C1500      H1512   1.082       .  S
C1501      C1649   1.487       .  S
C1502      C1665   1.502       .  S
C1503      C1617   1.487       .  S
C1504      C1633   1.494       .  S
N1515      C1520   1.354       .  A
N1515      C1519   1.351       .  A
N1515      H1547   1.039       .  S
N1516      C1523   1.349       .  A
N1516      C1524   1.351       .  A
N1517      C1522   1.350       .  A
N1517      C1521   1.354       .  A
N1517      H1548   1.039       .  S
N1518      C1525   1.354       .  A
N1518      C1526   1.351       .  A
C1519      C1527   1.388       .  A
C1519      C1535   1.414       .  A
C1520      C1536   1.417       .  A
C1520      C1528   1.387       .  A
C1521      C1529   1.386       .  A
C1521      C1538   1.413       .  A
C1522      C1537   1.413       .  A
C1522      C1530   1.388       .  A
C1523      C1535   1.412       .  A
C1523      C1531   1.388       .  A
C1524      C1538   1.411       .  A
C1524      C1532   1.385       .  A
C1525      C1533   1.386       .  A
C1525      C1536   1.417       .  A
C1526      C1534   1.385       .  A
C1526      C1537   1.413       .  A
C1527      C1528   1.379       .  A
C1527      H1539   1.083       .  S
C1528      H1540   1.082       .  S
C1529      C1530   1.376       .  A
C1529      H1541   1.082       .  S
C1530      H1542   1.082       .  S
C1531      C1532   1.375       .  A
C1531      H1543   1.082       .  S
C1532      H1544   1.082       .  S
C1533      C1534   1.374       .  A
C1533      H1545   1.082       .  S
C1534      H1546   1.082       .  S
C1535      C1569   1.481       .  S
C1536      C1601   1.503       .  S
C1537      C1582   1.484       .  S
C1538      C1553   1.493       .  S
C1549      C1898   1.402   1_556  A
C1549      C1554   1.406       .  A
C1549      H1556   1.084       .  S
C1550      C1897   1.401       .  A
C1550      C1551   1.415       .  A
C1551      C1552   1.408       .  A
C1551      C1558   1.507       .  S
C1552      C1553   1.405       .  A
C1552      H1557   1.084       .  S
C1553      C1902   1.412       .  A
C1554      C1901   1.415       .  A
C1554      C1555   1.506       .  S
C1555      H1559   1.110       .  S
C1555      H1908   1.110       .  S
C1555      H1561   1.109       .  S
C1558      H1562   1.109       .  S
C1558      H1911   1.111       .  S
C1558      H1564   1.110       .  S
H1560      C1903   1.110       .  S
H1563      C1906   1.111       .  S
C1565      C1566   1.404       .  A
C1565      C1570   1.404       .  A
C1565      H1572   1.083       .  S
C1566      C1915   1.413       .  A
C1567      C1914   1.410   1_554  A
C1567      C1568   1.400       .  A
C1567      C1574   1.504       .  S
C1568      C1917   1.401   1_554  A
C1568      H1573   1.084       .  S
C1569      C1916   1.399       .  A
C1569      C1570   1.411       .  A
C1570      C1571   1.505       .  S
C1571      H1575   1.108       .  S
C1571      H1924   1.109       .  S
C1571      H1577   1.111       .  S
C1574      H1578   1.109       .  S
C1574      H1927   1.109       .  S
C1574      H1580   1.111       .  S
H1576      C1919   1.110       .  S
H1579      C1922   1.110       .  S
C1581      C1582   1.401       .  A
C1581      C1586   1.402       .  A
C1581      H1588   1.084       .  S
C1582      C1931   1.415       .  A
C1583      C1930   1.413       .  A
C1583      C1584   1.401       .  A
C1583      C1590   1.507       .  S
C1584      C1933   1.401       .  A
C1584      H1589   1.085       .  S
C1585      C1932   1.400       .  A
C1585      C1586   1.414       .  A
C1586      C1587   1.506       .  S
C1587      H1591   1.111       .  S
C1587      H1592   1.109       .  S
C1587      H1941   1.109       .  S
C1590      H1942   1.110       .  S
C1590      H1595   1.108       .  S
C1590      H1596   1.111       .  S
H1593      C1935   1.110       .  S
H1594      C1938   1.110       .  S
C1597      C1598   1.404       .  A
C1597      C1602   1.404       .  A
C1597      H1604   1.080       .  S
C1598      C1947   1.419       .  A
C1599      C1946   1.418       .  A
C1599      C1600   1.408       .  A
C1599      C1606   1.507       .  S
C1600      C1949   1.405       .  A
C1600      H1605   1.084       .  S
C1601      C1948   1.407       .  A
C1601      C1602   1.418       .  A
C1602      C1603   1.509       .  S
C1603      H1607   1.111       .  S
C1603      H1956   1.106       .  S
C1603      H1609   1.110       .  S
C1606      H1610   1.109       .  S
C1606      H1959   1.108       .  S
C1606      H1612   1.111       .  S
H1608      C1951   1.110       .  S
H1611      C1954   1.110       .  S
C1613      C2310   1.401   1_545  A
C1613      C1618   1.403       .  A
C1613      H1620   1.084       .  S
C1614      C2309   1.400       .  A
C1614      C1615   1.415       .  A
C1615      C1616   1.405       .  A
C1615      C1622   1.508       .  S
C1616      C2313   1.405       .  A
C1616      H1621   1.084       .  S
C1617      C2312   1.402       .  A
C1617      C1618   1.413   1_565  A
C1618      C1619   1.507       .  S
C1619      H1623   1.111       .  S
C1619      H1624   1.110       .  S
C1619      H1625   1.110       .  S
C1622      H1626   1.110       .  S
C1622      H1627   1.110       .  S
C1622      H1628   1.111       .  S
C1629      C2326   1.400       .  A
C1629      C1634   1.403       .  A
C1629      H1636   1.077       .  S
C1630      C2325   1.400       .  A
C1630      C1631   1.415       .  A
C1631      C1632   1.410       .  A
C1631      C1638   1.508       .  S
C1632      C2329   1.407       .  A
C1632      H1637   1.084       .  S
C1633      C2328   1.406   1_565  A
C1633      C1634   1.412       .  A
C1634      C1635   1.507       .  S
C1635      H1639   1.111       .  S
C1635      H2336   1.110       .  S
C1635      H1641   1.108       .  S
C1638      H1642   1.110       .  S
C1638      H2339   1.108       .  S
C1638      H1644   1.111       .  S
H1640      C2331   1.110       .  S
H1643      C2334   1.108       .  S
C1645      C2342   1.399       .  A
C1645      C1650   1.401       .  A
C1645      H1652   1.081       .  S
C1646      C2341   1.403       .  A
C1646      C1647   1.408   1_565  A
C1647      C1648   1.402       .  A
C1647      C1654   1.506       .  S
C1648      C1649   1.402   1_545  A
C1648      H1653   1.084       .  S
C1649      C2346   1.414       .  A
C1650      C2345   1.413       .  A
C1650      C1651   1.507       .  S
C1651      H1655   1.110       .  S
C1651      H1656   1.111       .  S
C1651      H1657   1.108       .  S
C1654      H1658   1.110       .  S
C1654      H1659   1.110       .  S
C1654      H1660   1.111       .  S
C1661      C2358   1.403       .  A
C1661      C1666   1.405       .  A
C1661      H1668   1.077       .  S
C1662      C2357   1.403   1_565  A
C1662      C1663   1.416       .  A
C1663      C1664   1.409       .  A
C1663      C1670   1.508       .  S
C1664      C1665   1.404       .  A
C1664      H1669   1.084       .  S
C1665      C2362   1.416   1_565  A
C1666      C2361   1.413       .  A
C1666      C1667   1.508       .  S
C1667      H1671   1.110       .  S
C1667      H2368   1.111       .  S
C1667      H1673   1.108       .  S
C1670      H1674   1.109       .  S
C1670      H2371   1.108       .  S
C1670      H1676   1.111       .  S
H1672      C2363   1.110       .  S
H1675      C2366   1.110       .  S
C1677      C1678   1.403   1_655  A
C1677      C1682   1.403       .  A
C1677      H1684   1.084       .  S
C1679      C1680   1.404       .  A
C1679      C1686   1.506       .  S
C1680      H1685   1.084       .  S
C1681      C1682   1.417       .  A
C1682      C1683   1.508       .  S
C1683      H1687   1.110       .  S
C1683      H1688   1.107       .  S
C1683      H1689   1.111       .  S
C1686      H1690   1.110       .  S
C1686      H1691   1.107       .  S
C1686      H1692   1.111       .  S
C1693      C1698   1.404       .  A
C1693      H1700   1.084       .  S
C1694      C1695   1.411       .  A
C1695      C1696   1.406       .  A
C1695      C1702   1.504       .  S
C1696      C1697   1.404       .  A
C1696      H1701   1.084       .  S
C1698      C1699   1.504       .  S
C1699      H1703   1.110       .  S
C1699      H1704   1.110       .  S
C1699      H1705   1.107       .  S
C1702      H1706   1.109       .  S
C1702      H1707   1.110       .  S
C1702      H1708   1.104       .  S
C1709      C1710   1.403       .  A
C1709      C1714   1.405       .  A
C1709      H1716   1.084       .  S
C1711      C1712   1.405       .  A
C1711      C1718   1.504       .  S
C1712      H1717   1.084       .  S
C1713      C1714   1.413       .  A
C1714      C1715   1.506       .  S
C1715      H1719   1.111       .  S
C1715      H1720   1.110       .  S
C1715      H1721   1.108       .  S
C1718      H1722   1.109       .  S
C1718      H1723   1.110       .  S
C1718      H1724   1.111       .  S
C1725      C1726   1.407       .  A
C1725      C1730   1.408       .  A
C1725      H1732   1.084       .  S
C1727      C1728   1.405       .  A
C1727      C1734   1.508       .  S
C1728      H1733   1.085       .  S
C1729      C1730   1.415       .  A
C1730      C1731   1.507       .  S
C1731      H1735   1.111       .  S
C1731      H1736   1.109       .  S
C1731      H1737   1.110       .  S
C1734      H1738   1.110       .  S
C1734      H1739   1.107       .  S
C1734      H1740   1.110       .  S
N1741      C1746   1.352       .  A
N1741      C1745   1.353       .  A
N1741      H1773   1.040       .  S
N1742      C1749   1.352       .  A
N1742      C1750   1.353       .  A
N1743      C1748   1.353       .  A
N1743      C1747   1.355       .  A
N1743      H1774   1.037       .  S
N1744      C1751   1.352       .  A
N1744      C1752   1.351       .  A
C1745      C1753   1.388       .  A
C1745      C1761   1.415       .  A
C1746      C1762   1.413       .  A
C1746      C1754   1.387       .  A
C1747      C1755   1.387       .  A
C1747      C1764   1.417       .  A
C1748      C1763   1.416       .  A
C1748      C1756   1.387       .  A
C1749      C1761   1.416       .  A
C1749      C1757   1.386       .  A
C1750      C1764   1.416       .  A
C1750      C1758   1.385       .  A
C1751      C1759   1.386       .  A
C1751      C1762   1.414       .  A
C1752      C1760   1.386       .  A
C1752      C1763   1.414       .  A
C1753      C1754   1.376       .  A
C1753      H1765   1.082       .  S
C1754      H1766   1.083       .  S
C1755      C1756   1.375       .  A
C1755      H1767   1.082       .  S
C1756      H1768   1.082       .  S
C1757      C1758   1.376       .  A
C1757      H1769   1.082       .  S
C1758      H1770   1.082       .  S
C1759      C1760   1.373       .  A
C1759      H1771   1.082       .  S
C1760      H1772   1.082       .  S
O1775      C1786   1.289       .  A
O1776      C1787   1.293       .  A
O1777      C1788   1.289       .  A
O1777     Eu2479   2.453   1_655  S
O1778      C1789   1.291       .  A
O1779      C2485   1.291       .  A
O1780      C2484   1.294       .  A
O1781      C1787   1.289       .  A
O1781     Eu1783   2.453   1_655  S
O1782      C1786   1.293       .  A
O1782     Eu2479   2.470   1_645  S
Eu1783     O2473   2.436   1_455  S
Eu1783     O2478   2.450   1_455  S
Eu1783     O2481   2.356   1_455  S
Eu1783     O1791   2.350   1_455  S
O1785     Eu2479   2.357   1_645  S
O1785     Eu2160   2.349   1_545  S
C1786      C2077   1.476       .  S
C1787      C2058   1.481       .  S
C1788      C2010   1.482       .  S
C1788      O2476   1.295   1_565  A
C1789      C1994   1.476       .  S
C1789      O2475   1.291       .  A
H1790      O1791   0.965       .  S
H1792      O1793   0.965       .  S
O1793     Eu2161   2.346   1_545  S
O1794      C1817   1.292       .  A
O1794     Eu1810   2.465   1_556  S
O1795      C1818   1.292       .  A
O1795     Eu1811   2.467   1_655  S
O1796      C1819   1.287       .  A
O1796     Eu1812   2.439       .  S
O1797      C1820   1.293       .  A
O1797     Eu1813   2.471       .  S
O1798      C1821   1.294   1_554  A
O1798     Eu2509   2.473   1_545  S
O1799      C1822   1.293       .  A
O1799     Eu2508   2.467   1_545  S
O1800      C1823   1.292       .  A
O1800     Eu1814   2.463   1_655  S
O1801      C1824   1.292       .  A
O1802      C1823   1.290       .  A
O1802     Eu1812   2.454   1_556  S
O1803      C1824   1.290       .  A
O1803     Eu1813   2.460   1_556  S
O1804      C1819   1.295       .  A
O1804     Eu1810   2.489   1_655  S
O1805      C1822   1.288       .  A
O1805     Eu1811   2.446   1_655  S
O1806      C1821   1.293       .  A
O1807      C1820   1.287       .  A
O1808      C1817   1.294       .  A
O1808     Eu1814   2.479       .  S
O1809      C1818   1.292       .  A
O1809     Eu2510   2.465   1_645  S
Eu1810     O1816   2.341   1_454  S
Eu1811     O1826   2.352   1_455  S
Eu1812     O2495   2.436   1_554  S
Eu1812     O2133   2.348       .  S
Eu1812     O2522   2.357   1_554  S
Eu1812     O1816   2.354   1_554  S
Eu1813     O2494   2.470   1_554  S
Eu1813     O2141   2.360       .  S
Eu1813     O2511   2.346   1_554  S
Eu1813     O1828   2.360   1_554  S
Eu1814     O2505   2.478       .  S
Eu1814     O2522   2.362   1_455  S
Eu1814     O1816   2.355   1_455  S
O1815     Eu2509   2.348   1_546  S
C1817      C2045   1.489       .  S
C1818      C2026   1.483       .  S
C1819      C1898   1.479       .  S
C1820      C1933   1.468       .  S
C1821      C1946   1.491       .  S
C1822      C1914   1.474       .  S
C1823      C1962   1.471       .  S
C1824      C1978   1.477       .  S
H1825      O1826   0.966       .  S
O1826     Eu2508   2.356   1_545  S
O1826     Eu2510   2.353   1_645  S
H1827      O1828   0.967       .  S
N1829      C1834   1.354   1_545  A
N1829      C1833   1.355       .  A
N1829      H1861   1.035       .  S
N1830      C1837   1.350       .  A
N1830      C1838   1.351       .  A
N1831      C1836   1.352   1_545  A
N1831      C1835   1.353   1_545  A
N1831      H1862   1.038       .  S
N1832      C1839   1.353       .  A
N1832      C1840   1.352       .  A
C1833      C1841   1.388   1_545  A
C1833      C1849   1.421       .  A
C1834      C1850   1.420       .  A
C1834      C1842   1.386       .  A
C1835      C1843   1.388       .  A
C1835      C1852   1.415   1_565  A
C1836      C1851   1.413       .  A
C1836      C1844   1.387       .  A
C1837      C1849   1.415       .  A
C1837      C1845   1.387       .  A
C1838      C1852   1.414       .  A
C1838      C1846   1.386       .  A
C1839      C1847   1.386   1_565  A
C1839      C1850   1.416       .  A
C1840      C1848   1.386   1_565  A
C1840      C1851   1.413       .  A
C1841      C1842   1.378       .  A
C1841      H1853   1.082       .  S
C1842      H1854   1.082       .  S
C1843      C1844   1.375       .  A
C1843      H1855   1.082       .  S
C1844      H1856   1.082       .  S
C1845      C1846   1.374       .  A
C1845      H1857   1.082       .  S
C1846      H1858   1.082       .  S
C1847      C1848   1.370       .  A
C1847      H1859   1.082       .  S
C1848      H1860   1.082       .  S
C1849      C1997   1.490       .  S
C1850      C2013   1.495       .  S
C1851      C1965   1.488       .  S
C1852      C1981   1.489       .  S
N1863      C1868   1.356       .  A
N1863      C1867   1.350       .  A
N1863      H1895   1.040   1_556  S
N1864      C1871   1.350       .  A
N1864      C1872   1.352       .  A
N1865      C1870   1.352   1_554  A
N1865      C1869   1.357   1_554  A
N1865      H1896   1.038       .  S
N1866      C1873   1.354       .  A
N1866      C1874   1.350       .  A
C1867      C1875   1.387       .  A
C1867      C1883   1.413       .  A
C1868      C1884   1.415       .  A
C1868      C1876   1.386       .  A
C1869      C1877   1.386       .  A
C1869      C1886   1.417       .  A
C1870      C1885   1.419   1_556  A
C1870      C1878   1.389       .  A
C1871      C1883   1.413       .  A
C1871      C1879   1.387   1_556  A
C1872      C1886   1.414       .  A
C1872      C1880   1.386   1_556  A
C1873      C1881   1.385       .  A
C1873      C1884   1.415   1_554  A
C1874      C1882   1.387       .  A
C1874      C1885   1.413       .  A
C1875      C1876   1.377       .  A
C1875      H1887   1.083       .  S
C1876      H1888   1.082       .  S
C1877      C1878   1.377       .  A
C1877      H1889   1.082       .  S
C1878      H1890   1.082       .  S
C1879      C1880   1.374       .  A
C1879      H1891   1.082       .  S
C1880      H1892   1.082       .  S
C1881      C1882   1.373       .  A
C1881      H1893   1.082       .  S
C1882      H1894   1.082       .  S
C1883      C1917   1.484       .  S
C1884      C1949   1.502       .  S
C1885      C1930   1.483       .  S
C1886      C1901   1.497       .  S
C1897      C1902   1.404       .  A
C1897      H1904   1.084       .  S
C1898      C1899   1.415       .  A
C1899      C1900   1.407       .  A
C1899      C1906   1.508       .  S
C1900      C1901   1.404   1_554  A
C1900      H1905   1.084       .  S
C1902      C1903   1.505       .  S
C1903      H1907   1.104       .  S
C1903      H1909   1.108       .  S
C1906      H1910   1.110       .  S
C1906      H1912   1.110       .  S
C1913      C1914   1.405       .  A
C1913      C1918   1.404       .  A
C1913      H1920   1.082       .  S
C1915      C1916   1.398       .  A
C1915      C1922   1.505       .  S
C1916      H1921   1.084       .  S
C1917      C1918   1.413       .  A
C1918      C1919   1.506       .  S
C1919      H1923   1.110       .  S
C1919      H1925   1.108       .  S
C1922      H1926   1.107       .  S
C1922      H1928   1.111       .  S
C1929      C1930   1.403   1_556  A
C1929      C1934   1.401       .  A
C1929      H1936   1.084       .  S
C1931      C1932   1.402       .  A
C1931      C1938   1.507       .  S
C1932      H1937   1.085       .  S
C1933      C1934   1.413   1_554  A
C1934      C1935   1.508       .  S
C1935      H1939   1.111       .  S
C1935      H1940   1.109       .  S
C1938      H1943   1.108       .  S
C1938      H1944   1.111       .  S
C1945      C1946   1.405   1_554  A
C1945      C1950   1.408       .  A
C1945      H1952   1.083       .  S
C1947      C1948   1.410       .  A
C1947      C1954   1.508       .  S
C1948      H1953   1.084       .  S
C1949      C1950   1.416   1_556  A
C1950      C1951   1.507       .  S
C1951      H1955   1.111       .  S
C1951      H1957   1.108       .  S
C1954      H1958   1.109       .  S
C1954      H1960   1.111       .  S
C1961      C2658   1.400   1_545  A
C1961      C1966   1.399       .  A
C1961      H1968   1.085       .  S
C1962      C2657   1.400       .  A
C1962      C1963   1.413       .  A
C1963      C1964   1.407       .  A
C1963      C1970   1.508       .  S
C1964      C2661   1.405       .  A
C1964      H1969   1.084       .  S
C1965      C2660   1.406       .  A
C1965      C1966   1.414   1_565  A
C1966      C1967   1.508       .  S
C1967      H1971   1.111       .  S
C1967      H1972   1.109       .  S
C1967      H1973   1.110       .  S
C1970      H1974   1.111       .  S
C1970      H1975   1.110       .  S
C1970      H1976   1.111       .  S
C1977      C2674   1.402   1_565  A
C1977      C1982   1.402       .  A
C1977      H1984   1.081       .  S
C1978      C2673   1.399       .  A
C1978      C1979   1.413       .  A
C1979      C1980   1.407       .  A
C1979      C1986   1.505       .  S
C1980      C2677   1.404       .  A
C1980      H1985   1.084       .  S
C1981      C2676   1.403       .  A
C1981      C1982   1.411   1_545  A
C1982      C1983   1.508       .  S
C1983      H1987   1.110       .  S
C1983      H2684   1.111       .  S
C1983      H1989   1.109       .  S
C1986      H1990   1.110       .  S
C1986      H2687   1.107       .  S
C1986      H1992   1.111       .  S
H1988      C2679   1.110       .  S
H1991      C2682   1.106       .  S
C1993      C2690   1.400       .  A
C1993      C1998   1.402       .  A
C1993      H2000   1.080       .  S
C1994      C2689   1.398   1_545  A
C1994      C1995   1.413       .  A
C1995      C1996   1.405       .  A
C1995      C2002   1.503       .  S
C1996      C1997   1.403       .  A
C1996      H2001   1.084       .  S
C1997      C2694   1.416   1_545  A
C1998      C2693   1.414       .  A
C1998      C1999   1.507       .  S
C1999      H2003   1.110       .  S
C1999      H2004   1.111       .  S
C1999      H2005   1.108       .  S
C2002      H2006   1.109       .  S
C2002      H2007   1.105       .  S
C2002      H2008   1.111       .  S
C2009      C2706   1.398       .  A
C2009      C2014   1.401       .  A
C2009      H2016   1.077       .  S
C2010      C2705   1.401   1_565  A
C2010      C2011   1.415       .  A
C2011      C2012   1.406       .  A
C2011      C2018   1.508       .  S
C2012      C2013   1.406       .  A
C2012      H2017   1.084       .  S
C2013      C2710   1.416   1_565  A
C2014      C2709   1.416       .  A
C2014      C2015   1.508       .  S
C2015      H2019   1.111       .  S
C2015      H2716   1.107       .  S
C2015      H2021   1.110       .  S
C2018      H2022   1.110       .  S
C2018      H2719   1.107       .  S
C2018      H2024   1.111       .  S
H2020      C2711   1.108       .  S
H2023      C2714   1.109       .  S
C2025      C2026   1.404       .  A
C2025      C2030   1.405       .  A
C2025      H2032   1.082       .  S
C2027      C2028   1.403       .  A
C2027      C2034   1.507       .  S
C2028      H2033   1.084       .  S
C2029      C2030   1.412       .  A
C2030      C2031   1.506       .  S
C2031      H2035   1.106       .  S
C2031      H2036   1.110       .  S
C2031      H2037   1.109       .  S
C2034      H2038   1.109       .  S
C2034      H2039   1.107       .  S
C2034      H2040   1.111       .  S
C2041      C2046   1.404       .  A
C2041      H2048   1.084       .  S
C2042      C2043   1.415       .  A
C2043      C2044   1.408       .  A
C2043      C2050   1.507       .  S
C2044      C2045   1.405   1_655  A
C2044      H2049   1.084       .  S
C2046      C2047   1.502       .  S
C2047      H2051   1.111       .  S
C2047      H2052   1.109       .  S
C2047      H2053   1.109       .  S
C2050      H2054   1.108       .  S
C2050      H2055   1.110       .  S
C2050      H2056   1.110       .  S
C2057      C2058   1.403       .  A
C2057      C2062   1.404       .  A
C2057      H2064   1.085       .  S
C2059      C2060   1.406       .  A
C2059      C2066   1.502       .  S
C2060      H2065   1.084       .  S
C2061      C2062   1.417       .  A
C2062      C2063   1.507       .  S
C2063      H2067   1.111       .  S
C2063      H2068   1.108       .  S
C2063      H2069   1.110       .  S
C2066      H2070   1.109       .  S
C2066      H2071   1.111       .  S
C2066      H2072   1.111       .  S
C2073      C2074   1.402       .  A
C2073      C2078   1.404       .  A
C2073      H2080   1.084       .  S
C2075      C2076   1.403       .  A
C2075      C2082   1.506       .  S
C2076      H2081   1.083       .  S
C2077      C2078   1.415       .  A
C2078      C2079   1.507       .  S
C2079      H2083   1.111       .  S
C2079      H2084   1.109       .  S
C2079      H2085   1.110       .  S
C2082      H2086   1.110       .  S
C2082      H2087   1.110       .  S
C2082      H2088   1.111       .  S
N2089      C2094   1.351       .  A
N2089      C2093   1.351       .  A
N2089      H2121   1.042       .  S
N2090      C2097   1.351       .  A
N2090      C2098   1.350       .  A
N2091      C2096   1.352       .  A
N2091      C2095   1.353       .  A
N2091      H2122   1.040       .  S
N2092      C2099   1.351       .  A
N2092      C2100   1.350       .  A
C2093      C2101   1.387       .  A
C2093      C2109   1.412       .  A
C2094      C2110   1.411       .  A
C2094      C2102   1.386       .  A
C2095      C2103   1.387       .  A
C2095      C2112   1.415       .  A
C2096      C2111   1.414       .  A
C2096      C2104   1.387       .  A
C2097      C2109   1.413       .  A
C2097      C2105   1.386       .  A
C2098      C2112   1.411       .  A
C2098      C2106   1.386       .  A
C2099      C2107   1.386       .  A
C2099      C2110   1.412       .  A
C2100      C2108   1.386       .  A
C2100      C2111   1.412       .  A
C2101      C2102   1.377       .  A
C2101      H2113   1.082       .  S
C2102      H2114   1.082       .  S
C2103      C2104   1.378       .  A
C2103      H2115   1.082       .  S
C2104      H2116   1.082       .  S
C2105      C2106   1.375       .  A
C2105      H2117   1.082       .  S
C2106      H2118   1.083       .  S
C2107      C2108   1.376       .  A
C2107      H2119   1.082       .  S
C2108      H2120   1.082       .  S
O2123      C2134   1.294       .  A
O2123     Eu2507   2.475   1_655  S
O2124      C2135   1.293       .  A
O2124     Eu2506   2.471   1_655  S
O2125      C2136   1.291       .  A
O2126      C2137   1.292       .  A
O2127     Eu2509   2.459       .  S
O2128     Eu2508   2.475   1_554  S
O2129      C2135   1.292   1_455  A
O2129     Eu2131   2.466       .  S
O2130      C2134   1.291   1_455  A
Eu2131     O2139   2.358   1_455  S
O2132     Eu2509   2.354       .  S
O2133     Eu2507   2.359   1_655  S
C2134      C2425   1.482       .  S
C2135      C2406   1.485       .  S
C2136      C2358   1.489       .  S
C2137      C2342   1.473       .  S
H2138      O2139   0.965       .  S
O2139     Eu2508   2.350   1_554  S
O2139     Eu2506   2.354   1_655  S
H2140      O2141   0.966       .  S
O2142      C2165   1.292       .  A
O2142     Eu2158   2.465       .  S
O2143      C2166   1.292       .  A
O2143     Eu2159   2.462       .  S
O2144      C2167   1.290       .  A
O2144     Eu2160   2.454       .  S
O2145      C2168   1.291       .  A
O2145     Eu2161   2.457       .  S
O2146      C2169   1.293       .  A
O2147      C2170   1.289       .  A
O2148      C2171   1.291       .  A
O2148     Eu2162   2.459   1_655  S
O2149      C2172   1.294       .  A
O2150      C2171   1.290       .  A
O2150     Eu2160   2.453       .  S
O2151      C2172   1.289       .  A
O2151     Eu2161   2.451       .  S
O2152      C2167   1.289       .  A
O2152     Eu2158   2.454       .  S
O2153      C2170   1.293       .  A
O2153     Eu2159   2.470   1_655  S
O2154      C2169   1.290       .  A
O2155      C2168   1.290       .  A
O2156      C2165   1.288       .  A
O2156     Eu2162   2.441   1_655  S
O2157      C2166   1.293       .  A
Eu2158     O2472   2.479       .  S
Eu2158     O2487   2.352       .  S
Eu2158     O2164   2.338       .  S
Eu2159     O2471   2.471   1_455  S
Eu2159     O2481   2.353   1_455  S
Eu2159     O2174   2.354   1_455  S
Eu2160     O2476   2.486   1_565  S
Eu2160     O2487   2.347       .  S
Eu2160     O2164   2.345       .  S
Eu2161     O2475   2.464   1_565  S
Eu2161     O2480   2.358       .  S
Eu2161     O2176   2.369       .  S
Eu2162     O2164   2.355   1_455  S
C2165      C2393   1.476       .  S
C2166      C2374   1.482       .  S
C2167      C2246   1.473       .  S
C2168      C2281   1.473       .  S
C2169      C2294   1.485       .  S
C2170      C2262   1.479       .  S
C2171      C2310   1.468       .  S
C2172      C2326   1.477       .  S
H2173      O2174   0.965       .  S
H2175      O2176   0.966       .  S
N2177      C2182   1.355       .  A
N2177      C2181   1.351       .  A
N2177      H2209   1.040       .  S
N2178      C2185   1.349       .  A
N2178      C2186   1.352       .  A
N2179      C2184   1.351       .  A
N2179      C2183   1.353       .  A
N2179      H2210   1.041       .  S
N2180      C2187   1.351       .  A
N2180      C2188   1.349       .  A
C2181      C2189   1.389       .  A
C2181      C2197   1.416       .  A
C2182      C2198   1.415       .  A
C2182      C2190   1.385       .  A
C2183      C2191   1.386       .  A
C2183      C2200   1.413       .  A
C2184      C2199   1.412       .  A
C2184      C2192   1.387       .  A
C2185      C2197   1.413       .  A
C2185      C2193   1.387       .  A
C2186      C2200   1.413       .  A
C2186      C2194   1.386       .  A
C2187      C2195   1.386       .  A
C2187      C2198   1.411       .  A
C2188      C2196   1.386       .  A
C2188      C2199   1.409       .  A
C2189      C2190   1.379       .  A
C2189      H2201   1.082       .  S
C2190      H2202   1.082       .  S
C2191      C2192   1.377       .  A
C2191      H2203   1.082       .  S
C2192      H2204   1.082       .  S
C2193      C2194   1.376       .  A
C2193      H2205   1.082       .  S
C2194      H2206   1.083       .  S
C2195      C2196   1.373       .  A
C2195      H2207   1.082       .  S
C2196      H2208   1.082       .  S
C2197      C2345   1.482       .  S
C2198      C2361   1.497       .  S
C2199      C2313   1.486       .  S
C2200      C2329   1.491       .  S
N2211      C2216   1.353       .  A
N2211      C2215   1.353       .  A
N2211      H2243   1.039       .  S
N2212      C2219   1.351       .  A
N2212      C2220   1.350       .  A
N2213      C2218   1.353       .  A
N2213      C2217   1.352       .  A
N2213      H2244   1.039       .  S
N2214      C2221   1.351       .  A
N2214      C2222   1.350       .  A
C2215      C2223   1.387       .  A
C2215      C2231   1.416       .  A
C2216      C2232   1.417       .  A
C2216      C2224   1.387       .  A
C2217      C2225   1.388       .  A
C2217      C2234   1.414       .  A
C2218      C2233   1.414       .  A
C2218      C2226   1.387       .  A
C2219      C2231   1.413       .  A
C2219      C2227   1.387       .  A
C2220      C2234   1.412       .  A
C2220      C2228   1.386       .  A
C2221      C2229   1.386       .  A
C2221      C2232   1.413       .  A
C2222      C2230   1.385       .  A
C2222      C2233   1.411       .  A
C2223      C2224   1.378       .  A
C2223      H2235   1.082       .  S
C2224      H2236   1.082       .  S
C2225      C2226   1.376       .  A
C2225      H2237   1.082       .  S
C2226      H2238   1.082       .  S
C2227      C2228   1.373       .  A
C2227      H2239   1.082       .  S
C2228      H2240   1.082       .  S
C2229      C2230   1.373       .  A
C2229      H2241   1.082       .  S
C2230      H2242   1.082       .  S
C2231      C2265   1.490       .  S
C2232      C2297   1.493       .  S
C2233      C2278   1.488       .  S
C2234      C2249   1.487       .  S
C2245      C2594   1.406       .  A
C2245      C2250   1.409       .  A
C2245      H2252   1.083       .  S
C2246      C2593   1.403       .  A
C2246      C2247   1.412       .  A
C2247      C2248   1.400       .  A
C2247      C2254   1.506       .  S
C2248      C2249   1.402       .  A
C2248      H2253   1.084       .  S
C2249      C2598   1.417       .  A
C2250      C2597   1.415       .  A
C2250      C2251   1.507       .  S
C2251      H2255   1.109       .  S
C2251      H2604   1.111       .  S
C2251      H2257   1.109       .  S
C2254      H2258   1.108       .  S
C2254      H2607   1.111       .  S
C2254      H2260   1.110       .  S
H2256      C2599   1.108       .  S
H2259      C2602   1.111       .  S
C2261      C2262   1.403       .  A
C2261      C2266   1.404       .  A
C2261      H2268   1.084       .  S
C2262      C2611   1.414       .  A
C2263      C2610   1.413   1_554  A
C2263      C2264   1.397       .  A
C2263      C2270   1.504       .  S
C2264      C2613   1.399   1_554  A
C2264      H2269   1.084       .  S
C2265      C2612   1.401       .  A
C2265      C2266   1.417       .  A
C2266      C2267   1.507       .  S
C2267      H2271   1.111       .  S
C2267      H2620   1.110       .  S
C2267      H2273   1.108       .  S
C2270      H2274   1.109       .  S
C2270      H2623   1.110       .  S
C2270      H2276   1.110       .  S
H2272      C2615   1.110       .  S
H2275      C2618   1.109       .  S
C2277      C2278   1.403       .  A
C2277      C2282   1.401       .  A
C2277      H2284   1.084       .  S
C2278      C2627   1.415       .  A
C2279      C2626   1.414   1_554  A
C2279      C2280   1.405       .  A
C2279      C2286   1.507       .  S
C2280      C2629   1.404   1_554  A
C2280      H2285   1.084       .  S
C2281      C2628   1.403       .  A
C2281      C2282   1.413       .  A
C2282      C2283   1.509       .  S
C2283      H2287   1.111       .  S
C2283      H2288   1.111       .  S
C2283      H2637   1.110       .  S
C2286      H2638   1.109       .  S
C2286      H2291   1.110       .  S
C2286      H2292   1.111       .  S
H2289      C2631   1.109       .  S
H2290      C2634   1.110       .  S
C2293      C2294   1.404       .  A
C2293      C2298   1.403       .  A
C2293      H2300   1.082       .  S
C2294      C2643   1.418       .  A
C2295      C2642   1.419       .  A
C2295      C2296   1.406       .  A
C2295      C2302   1.508       .  S
C2296      C2645   1.403       .  A
C2296      H2301   1.084       .  S
C2297      C2644   1.404       .  A
C2297      C2298   1.415       .  A
C2298      C2299   1.508       .  S
C2299      H2303   1.111       .  S
C2299      H2652   1.108       .  S
C2299      H2305   1.110       .  S
C2302      H2306   1.110       .  S
C2302      H2655   1.106       .  S
C2302      H2308   1.111       .  S
H2304      C2647   1.111       .  S
H2307      C2650   1.110       .  S
C2309      C2314   1.399       .  A
C2309      H2316   1.084       .  S
C2310      C2311   1.411       .  A
C2311      C2312   1.403       .  A
C2311      C2318   1.508       .  S
C2312      H2317   1.084       .  S
C2313      C2314   1.413       .  A
C2314      C2315   1.508       .  S
C2315      H2319   1.111       .  S
C2315      H2320   1.108       .  S
C2315      H2321   1.110       .  S
C2318      H2322   1.111       .  S
C2318      H2323   1.110       .  S
C2318      H2324   1.111       .  S
C2325      C2330   1.399       .  A
C2325      H2332   1.081       .  S
C2326      C2327   1.412   1_565  A
C2327      C2328   1.407       .  A
C2327      C2334   1.508       .  S
C2328      H2333   1.084       .  S
C2329      C2330   1.411       .  A
C2330      C2331   1.507       .  S
C2331      H2335   1.110       .  S
C2331      H2337   1.108       .  S
C2334      H2338   1.110       .  S
C2334      H2340   1.111       .  S
C2341      C2346   1.405       .  A
C2341      H2348   1.081       .  S
C2342      C2343   1.411       .  A
C2343      C2344   1.403       .  A
C2343      C2350   1.502       .  S
C2344      C2345   1.402       .  A
C2344      H2349   1.084       .  S
C2346      C2347   1.507       .  S
C2347      H2351   1.111       .  S
C2347      H2352   1.110       .  S
C2347      H2353   1.109       .  S
C2350      H2354   1.110       .  S
C2350      H2355   1.105       .  S
C2350      H2356   1.111       .  S
C2357      C2362   1.409       .  A
C2357      H2364   1.080       .  S
C2358      C2359   1.417       .  A
C2359      C2360   1.408       .  A
C2359      C2366   1.508       .  S
C2360      C2361   1.406       .  A
C2360      H2365   1.084       .  S
C2362      C2363   1.507       .  S
C2363      H2367   1.111       .  S
C2363      H2369   1.109       .  S
C2366      H2370   1.110       .  S
C2366      H2372   1.111       .  S
C2373      C2374   1.405   1_655  A
C2373      C2378   1.404       .  A
C2373      H2380   1.084       .  S
C2375      C2376   1.404       .  A
C2375      C2382   1.506       .  S
C2376      H2381   1.084       .  S
C2377      C2378   1.415       .  A
C2378      C2379   1.508       .  S
C2379      H2383   1.110       .  S
C2379      H2384   1.107       .  S
C2379      H2385   1.110       .  S
C2382      H2386   1.109       .  S
C2382      H2387   1.108       .  S
C2382      H2388   1.111       .  S
C2389      C2394   1.401       .  A
C2389      H2396   1.084       .  S
C2390      C2391   1.417       .  A
C2391      C2392   1.403       .  A
C2391      C2398   1.508       .  S
C2392      C2393   1.403       .  A
C2392      H2397   1.084       .  S
C2394      C2395   1.503       .  S
C2395      H2399   1.111       .  S
C2395      H2400   1.104       .  S
C2395      H2401   1.110       .  S
C2398      H2402   1.111       .  S
C2398      H2403   1.107       .  S
C2398      H2404   1.111       .  S
C2405      C2406   1.403       .  A
C2405      C2410   1.406       .  A
C2405      H2412   1.084       .  S
C2407      C2408   1.403       .  A
C2407      C2414   1.504       .  S
C2408      H2413   1.084       .  S
C2409      C2410   1.415       .  A
C2410      C2411   1.506       .  S
C2411      H2415   1.111       .  S
C2411      H2416   1.110       .  S
C2411      H2417   1.108       .  S
C2414      H2418   1.110       .  S
C2414      H2419   1.109       .  S
C2414      H2420   1.111       .  S
C2421      C2422   1.403       .  A
C2421      C2426   1.405       .  A
C2421      H2428   1.084       .  S
C2423      C2424   1.406       .  A
C2423      C2430   1.506       .  S
C2424      H2429   1.084       .  S
C2425      C2426   1.415       .  A
C2426      C2427   1.507       .  S
C2427      H2431   1.111       .  S
C2427      H2432   1.110       .  S
C2427      H2433   1.109       .  S
C2430      H2434   1.110       .  S
C2430      H2435   1.111       .  S
C2430      H2436   1.111       .  S
N2437      C2442   1.355       .  A
N2437      C2441   1.352       .  A
N2437      H2469   1.040       .  S
N2438      C2445   1.351       .  A
N2438      C2446   1.352       .  A
N2439      C2444   1.352       .  A
N2439      C2443   1.354       .  A
N2439      H2470   1.039       .  S
N2440      C2447   1.354       .  A
N2440      C2448   1.352       .  A
C2441      C2449   1.387       .  A
C2441      C2457   1.416       .  A
C2442      C2458   1.417       .  A
C2442      C2450   1.386       .  A
C2443      C2451   1.388       .  A
C2443      C2460   1.416       .  A
C2444      C2459   1.413       .  A
C2444      C2452   1.387       .  A
C2445      C2457   1.415       .  A
C2445      C2453   1.387       .  A
C2446      C2460   1.414       .  A
C2446      C2454   1.386       .  A
C2447      C2455   1.386       .  A
C2447      C2458   1.417       .  A
C2448      C2456   1.386       .  A
C2448      C2459   1.414       .  A
C2449      C2450   1.376       .  A
C2449      H2461   1.082       .  S
C2450      H2462   1.082       .  S
C2451      C2452   1.376       .  A
C2451      H2463   1.082       .  S
C2452      H2464   1.082       .  S
C2453      C2454   1.373       .  A
C2453      H2465   1.082       .  S
C2454      H2466   1.083       .  S
C2455      C2456   1.374       .  A
C2455      H2467   1.082       .  S
C2456      H2468   1.082       .  S
O2471      C2482   1.293       .  A
O2472      C2483   1.294   1_655  A
O2473      C2484   1.286       .  A
O2474      C2485   1.291       .  A
O2477      C2483   1.291       .  A
O2477     Eu2479   2.465       .  S
O2478      C2482   1.289       .  A
Eu2479     O2487   2.358   1_455  S
C2482      C2773   1.474       .  S
C2483      C2754   1.483   1_455  S
C2484      C2706   1.477       .  S
C2485      C2690   1.472       .  S
H2486      O2487   0.966       .  S
H2488      O2489   0.965       .  S
O2490      C2513   1.292       .  A
O2490     Eu2506   2.463   1_656  S
O2491      C2514   1.292       .  A
O2491     Eu2507   2.466   1_556  S
O2492      C2515   1.293       .  A
O2492     Eu2508   2.473       .  S
O2493      C2516   1.292       .  A
O2493     Eu2509   2.466   1_556  S
O2494      C2517   1.293       .  A
O2495      C2518   1.287       .  A
O2496      C2519   1.290       .  A
O2496     Eu2510   2.455   1_655  S
O2497      C2520   1.291   1_565  A
O2498      C2519   1.289       .  A
O2498     Eu2508   2.448       .  S
O2499      C2520   1.291   1_565  A
O2499     Eu2509   2.463   1_556  S
O2500      C2515   1.292       .  A
O2500     Eu2506   2.470   1_656  S
O2501      C2518   1.290       .  A
O2501     Eu2507   2.455   1_656  S
O2502      C2517   1.292       .  A
O2503      C2516   1.292       .  A
O2504      C2513   1.288   1_455  A
O2504     Eu2510   2.443       .  S
O2505      C2514   1.294       .  A
Eu2506     O2512   2.345   1_454  S
Eu2507     O2522   2.356   1_454  S
Eu2508     O2512   2.351       .  S
Eu2509     O2524   2.363   1_554  S
Eu2510     O2512   2.354   1_455  S
C2513      C2741   1.473       .  S
C2514      C2722   1.485       .  S
C2515      C2594   1.487       .  S
C2516      C2629   1.480       .  S
C2517      C2642   1.482       .  S
C2518      C2610   1.469       .  S
C2519      C2658   1.467       .  S
C2520      C2674   1.478       .  S
H2521      O2522   0.966       .  S
H2523      O2524   0.966       .  S
N2525      C2530   1.354       .  A
N2525      C2529   1.354       .  A
N2525      H2557   1.038       .  S
N2526      C2533   1.350       .  A
N2526      C2534   1.352       .  A
N2527      C2532   1.353       .  A
N2527      C2531   1.354       .  A
N2527      H2558   1.038       .  S
N2528      C2535   1.353       .  A
N2528      C2536   1.352       .  A
C2529      C2537   1.387       .  A
C2529      C2545   1.417       .  A
C2530      C2546   1.418       .  A
C2530      C2538   1.387       .  A
C2531      C2539   1.387       .  A
C2531      C2548   1.415       .  A
C2532      C2547   1.415       .  A
C2532      C2540   1.387       .  A
C2533      C2545   1.413       .  A
C2533      C2541   1.387       .  A
C2534      C2548   1.413       .  A
C2534      C2542   1.386       .  A
C2535      C2543   1.387       .  A
C2535      C2546   1.416       .  A
C2536      C2544   1.386       .  A
C2536      C2547   1.413       .  A
C2537      C2538   1.378       .  A
C2537      H2549   1.082       .  S
C2538      H2550   1.083       .  S
C2539      C2540   1.376       .  A
C2539      H2551   1.082       .  S
C2540      H2552   1.082       .  S
C2541      C2542   1.372       .  A
C2541      H2553   1.082       .  S
C2542      H2554   1.082       .  S
C2543      C2544   1.373       .  A
C2543      H2555   1.082       .  S
C2544      H2556   1.082       .  S
C2545      C2693   1.486       .  S
C2546      C2709   1.495       .  S
C2547      C2661   1.488       .  S
C2548      C2677   1.490       .  S
N2559      C2564   1.351       .  A
N2559      C2563   1.349       .  A
N2559      H2591   1.041   1_556  S
N2560      C2567   1.347   1_556  A
N2560      C2568   1.348   1_556  A
N2561      C2566   1.352       .  A
N2561      C2565   1.355       .  A
N2561      H2592   1.042   1_556  S
N2562      C2569   1.351       .  A
N2562      C2570   1.349   1_556  A
C2563      C2571   1.387       .  A
C2563      C2579   1.410       .  A
C2564      C2580   1.411       .  A
C2564      C2572   1.387       .  A
C2565      C2573   1.385       .  A
C2565      C2582   1.414       .  A
C2566      C2581   1.414       .  A
C2566      C2574   1.387       .  A
C2567      C2579   1.408   1_554  A
C2567      C2575   1.387       .  A
C2568      C2582   1.408   1_554  A
C2568      C2576   1.386       .  A
C2569      C2577   1.386   1_556  A
C2569      C2580   1.411       .  A
C2570      C2578   1.387       .  A
C2570      C2581   1.412   1_554  A
C2571      C2572   1.378       .  A
C2571      H2583   1.083       .  S
C2572      H2584   1.082       .  S
C2573      C2574   1.379       .  A
C2573      H2585   1.082       .  S
C2574      H2586   1.082       .  S
C2575      C2576   1.376       .  A
C2575      H2587   1.082       .  S
C2576      H2588   1.082       .  S
C2577      C2578   1.377       .  A
C2577      H2589   1.082       .  S
C2578      H2590   1.082       .  S
C2579      C2613   1.478       .  S
C2580      C2645   1.488       .  S
C2581      C2626   1.491       .  S
C2582      C2597   1.493       .  S
C2593      C2598   1.403       .  A
C2593      H2600   1.084       .  S
C2594      C2595   1.415   1_556  A
C2595      C2596   1.405       .  A
C2595      C2602   1.506       .  S
C2596      C2597   1.401   1_554  A
C2596      H2601   1.084       .  S
C2598      C2599   1.508       .  S
C2599      H2603   1.111       .  S
C2599      H2605   1.110       .  S
C2602      H2606   1.108       .  S
C2602      H2608   1.109       .  S
C2609      C2610   1.402       .  A
C2609      C2614   1.401       .  A
C2609      H2616   1.084       .  S
C2611      C2612   1.401       .  A
C2611      C2618   1.502       .  S
C2612      H2617   1.084       .  S
C2613      C2614   1.413       .  A
C2614      C2615   1.507       .  S
C2615      H2619   1.110       .  S
C2615      H2621   1.108       .  S
C2618      H2622   1.108       .  S
C2618      H2624   1.111       .  S
C2625      C2626   1.403       .  A
C2625      C2630   1.405       .  A
C2625      H2632   1.084       .  S
C2627      C2628   1.403       .  A
C2627      C2634   1.507       .  S
C2628      H2633   1.085       .  S
C2629      C2630   1.415       .  A
C2630      C2631   1.508       .  S
C2631      H2635   1.111       .  S
C2631      H2636   1.110       .  S
C2634      H2639   1.108       .  S
C2634      H2640   1.111       .  S
C2641      C2642   1.401   1_554  A
C2641      C2646   1.401       .  A
C2641      H2648   1.077       .  S
C2643      C2644   1.405       .  A
C2643      C2650   1.509       .  S
C2644      H2649   1.084       .  S
C2645      C2646   1.411   1_556  A
C2646      C2647   1.508       .  S
C2647      H2651   1.111       .  S
C2647      H2653   1.109       .  S
C2650      H2654   1.109       .  S
C2650      H2656   1.111       .  S
C2657      C2662   1.401       .  A
C2657      H2664   1.084       .  S
C2658      C2659   1.412       .  A
C2659      C2660   1.405       .  A
C2659      C2666   1.509       .  S
C2660      H2665   1.084       .  S
C2661      C2662   1.412       .  A
C2662      C2663   1.507       .  S
C2663      H2667   1.111       .  S
C2663      H2668   1.109       .  S
C2663      H2669   1.111       .  S
C2666      H2670   1.111       .  S
C2666      H2671   1.110       .  S
C2666      H2672   1.111       .  S
C2673      C2678   1.402       .  A
C2673      H2680   1.077       .  S
C2674      C2675   1.418       .  A
C2675      C2676   1.406       .  A
C2675      C2682   1.509       .  S
C2676      H2681   1.084       .  S
C2677      C2678   1.411       .  A
C2678      C2679   1.507       .  S
C2679      H2683   1.110       .  S
C2679      H2685   1.109       .  S
C2682      H2686   1.110       .  S
C2682      H2688   1.110       .  S
C2689      C2694   1.401       .  A
C2689      H2696   1.080       .  S
C2690      C2691   1.413       .  A
C2691      C2692   1.403       .  A
C2691      C2698   1.506       .  S
C2692      C2693   1.402       .  A
C2692      H2697   1.085       .  S
C2694      C2695   1.507       .  S
C2695      H2699   1.111       .  S
C2695      H2700   1.111       .  S
C2695      H2701   1.108       .  S
C2698      H2702   1.111       .  S
C2698      H2703   1.109       .  S
C2698      H2704   1.109       .  S
C2705      C2710   1.404       .  A
C2705      H2712   1.080       .  S
C2706      C2707   1.415       .  A
C2707      C2708   1.405       .  A
C2707      C2714   1.509       .  S
C2708      C2709   1.406       .  A
C2708      H2713   1.084       .  S
C2710      C2711   1.508       .  S
C2711      H2715   1.111       .  S
C2711      H2717   1.110       .  S
C2714      H2718   1.109       .  S
C2714      H2720   1.111       .  S
C2721      C2722   1.404   1_655  A
C2721      C2726   1.406       .  A
C2721      H2728   1.083       .  S
C2723      C2724   1.408       .  A
C2723      C2730   1.508       .  S
C2724      H2729   1.085       .  S
C2725      C2726   1.414       .  A
C2726      C2727   1.508       .  S
C2727      H2731   1.109       .  S
C2727      H2732   1.110       .  S
C2727      H2733   1.108       .  S
C2730      H2734   1.110       .  S
C2730      H2735   1.105       .  S
C2730      H2736   1.111       .  S
C2737      C2742   1.401       .  A
C2737      H2744   1.084       .  S
C2738      C2739   1.416       .  A
C2739      C2740   1.402       .  A
C2739      C2746   1.507       .  S
C2740      C2741   1.402       .  A
C2740      H2745   1.084       .  S
C2742      C2743   1.505       .  S
C2743      H2747   1.111       .  S
C2743      H2748   1.110       .  S
C2743      H2749   1.109       .  S
C2746      H2750   1.110       .  S
C2746      H2751   1.108       .  S
C2746      H2752   1.111       .  S
C2753      C2754   1.404       .  A
C2753      C2758   1.406       .  A
C2753      H2760   1.084       .  S
C2755      C2756   1.402       .  A
C2755      C2762   1.505       .  S
C2756      H2761   1.084       .  S
C2757      C2758   1.412       .  A
C2758      C2759   1.506       .  S
C2759      H2763   1.111       .  S
C2759      H2764   1.111       .  S
C2759      H2765   1.110       .  S
C2762      H2766   1.109       .  S
C2762      H2767   1.111       .  S
C2762      H2768   1.111       .  S
C2769      C2770   1.403       .  A
C2769      C2774   1.405       .  A
C2769      H2776   1.084       .  S
C2771      C2772   1.404       .  A
C2771      C2778   1.506       .  S
C2772      H2777   1.084       .  S
C2773      C2774   1.412       .  A
C2774      C2775   1.506       .  S
C2775      H2779   1.111       .  S
C2775      H2780   1.111       .  S
C2775      H2781   1.110       .  S
C2778      H2782   1.109       .  S
C2778      H2783   1.111       .  S
C2778      H2784   1.111       .  S
