geometry optimzed in LAMMPS
_audit_creation_date              2020-11-30 
_audit_creation_method            'lammps2cif' 
_symmetry_space_group_name_H-M    'P1' 
_symmetry_Int_Tables_number       1 
_symmetry_cell_setting            triclinic 
loop_ 
_symmetry_equiv_pos_as_xyz 
  x,y,z 
_cell_length_a                    37.03094115 
_cell_length_b                    37.149964210830476 
_cell_length_c                    37.07356225978819 
_cell_angle_alpha                 90.58322552342024 
_cell_angle_beta                  89.76005027481573 
_cell_angle_gamma                 91.37450826014296 
loop_ 
_atom_site_label 
_atom_site_type_symbol 
_atom_site_fract_x 
_atom_site_fract_y 
_atom_site_fract_z 
_atom_site_charge 
C1          C  0.61206089  0.09604017  0.77987849     0.85800
C2          C  0.62432091  0.11063115  0.74383400    -0.54400
C3          C  0.60741466  0.09540326  0.71499141     0.08700
C4          C  0.57959459  0.06470924  0.72526882     0.19700
C5          C  0.57062555  0.10034387  0.78039571    -0.55200
C6          C  0.55330903  0.08465285  0.75145580     0.08800
C7          C  0.61764005  0.05571606  0.77771127    -0.54700
C8          C  0.60044451  0.03751841  0.75006088     0.09400
H9          H  0.64386119  0.13276979  0.74135326     0.13900
H10         H  0.56590482  0.05206482  0.70159014    -0.00400
H11         H  0.55658881  0.11623954  0.80054134     0.14200
H12         H  0.63374797  0.04335455  0.79812651     0.14000
C13         C  0.60369594  0.93641612  0.77903675     0.85800
C14         C  0.61403322  0.97658422  0.77768863    -0.54400
C15         C  0.59944427  0.99583757  0.74978668     0.08700
C16         C  0.57720845  0.97020893  0.72412836     0.19700
C17         C  0.56199055  0.93513353  0.77799327    -0.55200
C18         C  0.54796965  0.95251187  0.74900690     0.08800
C19         C  0.61530082  0.92100442  0.74288191    -0.54700
C20         C  0.60160770  0.93805391  0.71397814     0.09400
H21         H  0.63010807  0.98815842  0.79924182     0.13900
H22         H  0.56593268  0.98394925  0.70036760    -0.00400
H23         H  0.54526564  0.92372983  0.79934135     0.14200
H24         H  0.63262735  0.89788271  0.74032002     0.14000
C25         C  0.46443639  0.10639786  0.70350547     0.85800
C26         C  0.50499647  0.10857983  0.71184230    -0.54400
C27         C  0.51438279  0.09178895  0.74297553     0.08700
C28         C  0.48126249  0.07534373  0.76365986     0.19700
C29         C  0.45487910  0.06587280  0.70439954    -0.55200
C30         C  0.46365324  0.04933853  0.73573378     0.08800
C31         C  0.44506139  0.12188343  0.73659739    -0.54700
C32         C  0.45308424  0.10541221  0.76824826     0.09400
H33         H  0.52484954  0.12019456  0.69341589     0.13900
H34         H  0.48867373  0.06204112  0.78919967    -0.00400
H35         H  0.44413659  0.05151079  0.68116764     0.14200
H36         H  0.42553715  0.14315348  0.73483739     0.14000
C37         C  0.46475149  0.00887727  0.73985665     0.85800
C38         C  0.50376168  0.99852502  0.74230737    -0.54400
C39         C  0.50969146  0.96327920  0.74691738     0.08700
C40         C  0.47423835  0.93995438  0.74887912     0.19700
C41         C  0.44903692  0.98487959  0.70938494    -0.55200
C42         C  0.45352697  0.94867656  0.71397298     0.08800
C43         C  0.44664809  0.99428476  0.77403370    -0.54700
C44         C  0.45091006  0.95815413  0.77866430     0.09400
H45         H  0.52560176  0.01809320  0.74078597     0.13900
H46         H  0.47834481  0.91074473  0.75277874    -0.00400
H47         H  0.43347815  0.99489489  0.68710354     0.14200
H48         H  0.43068607  0.01078014  0.79211609     0.14000
C49         C  0.71827078  0.61247946  0.93146382     0.85800
C50         C  0.72678232  0.57533263  0.91640709    -0.54400
C51         C  0.75332100  0.55794135  0.93470135     0.08700
C52         C  0.77121560  0.58190270  0.96450486     0.19700
C53         C  0.71155494  0.60663781  0.97173973    -0.55200
C54         C  0.73927578  0.59062045  0.98993752     0.08800
C55         C  0.75355611  0.63393325  0.92937399    -0.54700
C56         C  0.78146349  0.61826843  0.94622461     0.09400
H57         H  0.71086861  0.56386038  0.89489258     0.13900
H58         H  0.79423504  0.56901250  0.97781552    -0.00400
H59         H  0.68598209  0.61392727  0.98359736     0.14200
H60         H  0.75684314  0.65830843  0.91359814     0.14000
C61         C  0.71525683  0.42708670  0.06438794     0.85800
C62         C  0.71324667  0.46631778  0.07690293    -0.54400
C63         C  0.74174260  0.48849032  0.06706933     0.08700
C64         C  0.77101148  0.46707137  0.04594373     0.19700
C65         C  0.72082121  0.42925500  0.02320774    -0.55200
C66         C  0.74979475  0.45044747  0.01317450     0.08800
C67         C  0.75051409  0.41352294  0.07893912    -0.54700
C68         C  0.78019696  0.43363444  0.06960297     0.09400
H69         H  0.68911983  0.47545697  0.09036599     0.13900
H70         H  0.79493804  0.48371768  0.03800413    -0.00400
H71         H  0.70149109  0.41830251  0.00382663     0.14200
H72         H  0.75187073  0.38972882  0.09567262     0.14000
C73         C  0.71057471  0.58536410  0.09032734     0.85800
C74         C  0.74752391  0.59928797  0.10228790    -0.54400
C75         C  0.77548497  0.58599049  0.08266765     0.08700
C76         C  0.76364110  0.55902137  0.05231622     0.19700
C77         C  0.70921763  0.59412850  0.05020096    -0.55200
C78         C  0.73673052  0.58134104  0.02958713     0.08800
C79         C  0.71240474  0.54451896  0.09192544    -0.54700
C80         C  0.73965236  0.52940995  0.07173318     0.09400
H81         H  0.75132215  0.61872907  0.12413251     0.13900
H82         H  0.78656162  0.54821505  0.03661631    -0.00400
H83         H  0.68850682  0.61103877  0.03969392     0.14200
H84         H  0.69290689  0.52948611  0.10794452     0.14000
C85         C  0.75585384  0.51688973  0.93491680     0.85800
C86         C  0.74937107  0.50242368  0.97296681    -0.54400
C87         C  0.75199594  0.46626229  0.97637342     0.08700
C88         C  0.75884430  0.44656882  0.93997763     0.19700
C89         C  0.79226585  0.50179040  0.92343659    -0.55200
C90         C  0.79395892  0.46487705  0.92568190     0.08800
C91         C  0.72830548  0.49624108  0.91140609    -0.54700
C92         C  0.72955837  0.45991379  0.91359018     0.09400
H93         H  0.74315970  0.51872061  0.99505100     0.13900
H94         H  0.76007770  0.41681378  0.94207932    -0.00400
H95         H  0.81470646  0.51879702  0.91438910     0.14200
H96         H  0.70858989  0.50825706  0.89443319     0.14000
C97         C  0.09431890  0.73998343  0.57528950     0.85800
C98         C  0.05307808  0.73387557  0.57958678    -0.54400
C99         C  0.03280437  0.76247679  0.56993152     0.08700
C100        C  0.05665471  0.79491676  0.55601995     0.19700
C101        C  0.09969238  0.75029904  0.53520726    -0.55200
C102        C  0.07946221  0.77875376  0.52428356     0.08800
C103        C  0.10297861  0.77418625  0.59674614    -0.54700
C104        C  0.08409528  0.80334294  0.58698201     0.09400
H105        H  0.04094618  0.70822650  0.58754104     0.13900
H106        H  0.04085937  0.81865029  0.54832780    -0.00400
H107        H  0.11526563  0.73418288  0.51647286     0.14200
H108        H  0.12424625  0.77569677  0.61689177     0.14000
C109        C  0.02518861  0.77200935  0.43875773     0.85800
C110        C  0.04661348  0.79556847  0.41234080    -0.54400
C111        C  0.08301695  0.79718545  0.41907736     0.08700
C112        C  0.09486561  0.77345851  0.45143028     0.19700
C113        C  0.04376814  0.73491831  0.43681920    -0.55200
C114        C  0.08044405  0.73583596  0.44075400     0.08800
C115        C  0.03599278  0.78815932  0.47555033    -0.54700
C116        C  0.07138624  0.78527323  0.48466573     0.09400
H117        H  0.03400794  0.81051471  0.39095687     0.13900
H118        H  0.12436550  0.77462053  0.45670377    -0.00400
H119        H  0.02984215  0.71000681  0.42944341     0.14200
H120        H  0.01659598  0.79892351  0.49419136     0.14000
C121        C  0.94432656  0.76867380  0.52009447     0.85800
C122        C  0.91862171  0.74640812  0.54399789    -0.54400
C123        C  0.92759561  0.74677377  0.57970409     0.08700
C124        C  0.96164449  0.77124480  0.58861116     0.19700
C125        C  0.94359671  0.80662274  0.53723169    -0.55200
C126        C  0.95144334  0.80796034  0.57349884     0.08800
C127        C  0.98148434  0.75381470  0.52868448    -0.54700
C128        C  0.99265255  0.75839327  0.56329647     0.09400
H129        H  0.89559865  0.73093479  0.53376346     0.13900
H130        H  0.96894820  0.77193232  0.61762752    -0.00400
H131        H  0.93447275  0.82982307  0.52251705     0.14200
H132        H  0.99864062  0.74199681  0.50829092     0.14000
C133        C  0.92623925  0.73603974  0.42192897     0.85800
C134        C  0.91137136  0.77096338  0.40752813    -0.54400
C135        C  0.92680808  0.80127562  0.42238593     0.08700
C136        C  0.95566688  0.79340880  0.45172325     0.19700
C137        C  0.96732625  0.73997818  0.41570459    -0.55200
C138        C  0.98377814  0.76936432  0.43234887     0.08800
C139        C  0.92167819  0.73775775  0.46291784    -0.54700
C140        C  0.93680548  0.76759817  0.47930592     0.09400
H141        H  0.89045759  0.77169892  0.38709147     0.13900
H142        H  0.96749872  0.81830308  0.46403801    -0.00400
H143        H  0.98188810  0.72019535  0.40014136     0.14200
H144        H  0.91027681  0.71511894  0.47767243     0.14000
In145      In  0.62590842  0.08255009  0.10552567     1.36900
C146        C  0.60436429  0.07239495  0.17303008     0.76900
O147        O  0.66065854  0.12980539  0.12200208    -0.61600
O148        O  0.61037477  0.13850809  0.09544597    -0.52500
C149        C  0.67163196  0.07379888  0.05174402     0.69500
O150        O  0.67894280  0.06167069  0.08284550    -0.47300
C151        C  0.57489192  0.04210805  0.07677913     0.74300
O152        O  0.58546004  0.08724656  0.14955642    -0.59200
O153        O  0.57575469  0.07615548  0.07594468    -0.49300
O154        O  0.63539608  0.06267644  0.16233350    -0.55600
C155        C  0.63911522  0.15190564  0.10865318     0.84400
O156        O  0.64163556  0.08870643  0.04912020    -0.57500
O157        O  0.60121715  0.02780851  0.09252048    -0.60800
In158      In  0.62183224  0.37249352  0.09815893     1.36900
C159        C  0.68275310  0.40547615  0.07706602     0.76900
O160        O  0.65334671  0.32840516  0.12276408    -0.61600
O161        O  0.61751216  0.31593147  0.07930251    -0.52500
C162        C  0.57243686  0.38393821  0.14897229     0.69500
O163        O  0.60098275  0.40322860  0.14682479    -0.47300
C164        C  0.58294179  0.40102135  0.04789925     0.74300
O165        O  0.67349839  0.40355522  0.11000250    -0.59200
O166        O  0.59138285  0.36825980  0.04728603    -0.49300
O167        O  0.66180498  0.38907059  0.05558663    -0.55600
C168        C  0.63973623  0.30461268  0.10193274     0.86800
O169        O  0.57245578  0.35634960  0.12895359    -0.57500
O170        O  0.59243395  0.41839626  0.07574965    -0.60800
In171      In  0.40185533  0.11414166  0.10965808     1.36900
C172        C  0.41731932  0.08885663  0.17502692     0.76900
O173        O  0.41466500  0.05808978  0.09260432    -0.61600
O174        O  0.45357850  0.10065602  0.08324413    -0.52500
C175        C  0.35742709  0.10904018  0.05382021     0.69500
O176        O  0.34666471  0.10002743  0.08519679    -0.47300
C177        C  0.39650768  0.18551174  0.11579997     0.74300
O178        O  0.38753105  0.08203492  0.15910245    -0.59200
O179        O  0.42372653  0.17019912  0.10246082    -0.49300
O180        O  0.43721818  0.11212730  0.15953615    -0.55600
C181        C  0.44555980  0.06727722  0.08094885     0.84400
O182        O  0.38963160  0.12064296  0.05201794    -0.57500
O183        O  0.37311521  0.16350950  0.12825938    -0.60800
In184      In  0.37738937  0.41067170  0.09453566     1.36900
C185        C  0.31361551  0.43155374  0.06788944     0.76900
O186        O  0.39519688  0.46783241  0.08627483    -0.61600
O187        O  0.40979798  0.42712638  0.04757943    -0.52500
C188        C  0.43157364  0.41047494  0.14061211     0.69500
O189        O  0.40055769  0.42109197  0.15087056    -0.47300
C190        C  0.37399332  0.33965203  0.09797422     0.74300
O191        O  0.32140281  0.43711904  0.10101235    -0.59200
O192        O  0.38559417  0.35624623  0.07043510    -0.49300
O193        O  0.33670038  0.41328645  0.05101175    -0.55600
C194        C  0.41016835  0.46020250  0.05644272     0.84400
O195        O  0.43392149  0.40139950  0.10784490    -0.57500
O196        O  0.35987389  0.35950752  0.12198974    -0.60800
In197      In  0.66777797  0.14274969  0.86634134     1.36900
C198        C  0.63290728  0.11367218  0.81028345     0.76900
O199        O  0.63165965  0.10911668  0.90021283    -0.61600
O200        O  0.61889396  0.16406507  0.89311735    -0.52500
C201        C  0.70812045  0.11308607  0.91583403     0.69500
O202        O  0.70502121  0.09938668  0.88456381    -0.47300
C203        C  0.69521825  0.20450347  0.84349035     0.74300
O204        O  0.66475564  0.10505475  0.81854396    -0.59200
O205        O  0.67348923  0.20176176  0.86954261    -0.49300
O206        O  0.62015283  0.13855058  0.82924212    -0.55600
C207        C  0.60964704  0.13376043  0.90588169     0.84400
O208        O  0.69711719  0.14484533  0.91863128    -0.57500
O209        O  0.70510345  0.17508183  0.82971404    -0.60800
In210      In  0.39293818  0.43332000  0.87465883     1.36900
C211        C  0.32362764  0.44458403  0.88941201     0.76900
O212        O  0.37208998  0.38343832  0.84670858    -0.61600
O213        O  0.40134590  0.37848297  0.89541369    -0.52500
C214        C  0.44879370  0.44063792  0.82968059     0.69500
O215        O  0.42006200  0.45797022  0.82443057    -0.47300
C216        C  0.41812287  0.47617442  0.92540752     0.74300
O217        O  0.33624584  0.44703514  0.85749243    -0.59200
O218        O  0.41949827  0.44219765  0.92664441    -0.49300
O219        O  0.34650116  0.43742172  0.91315477    -0.55600
C220        C  0.38466293  0.36254035  0.86996451     0.84400
O221        O  0.44775077  0.42022346  0.85652058    -0.57500
O222        O  0.40497456  0.48883732  0.89686456    -0.60800
In223      In  0.64784999  0.40654863  0.85862666     1.36900
C224        C  0.70330039  0.43821692  0.89213717     0.76900
O225        O  0.61751741  0.44515914  0.89219317    -0.61600
O226        O  0.61293907  0.38890562  0.90350173    -0.52500
C227        C  0.59358367  0.42095958  0.81496302     0.69500
O228        O  0.62199930  0.44080746  0.81585614    -0.47300
C229        C  0.67908066  0.34808727  0.83592866     0.74300
O230        O  0.69072419  0.44938146  0.86250962    -0.59200
O231        O  0.65874661  0.34912689  0.86329264    -0.49300
O232        O  0.68906790  0.40932481  0.90336893    -0.55600
C233        C  0.60389271  0.42065981  0.91156823     0.84400
O234        O  0.59622789  0.39161571  0.83148781    -0.57500
O235        O  0.68254950  0.37714577  0.81851374    -0.60800
In236      In  0.40862192  0.14016388  0.86635511     1.36900
C237        C  0.43441850  0.11469580  0.80278645     0.76900
O238        O  0.37461623  0.18520127  0.84744032    -0.61600
O239        O  0.42543726  0.19714424  0.87273297    -0.52500
C240        C  0.35604456  0.12151367  0.91271355     0.69500
O241        O  0.36230784  0.10208406  0.88510778    -0.47300
C242        C  0.46435427  0.13125261  0.90749673     0.74300
O243        O  0.40878804  0.13645882  0.80494373    -0.59200
O244        O  0.46026407  0.15926348  0.88914402    -0.49300
O245        O  0.44353305  0.10248696  0.83276384    -0.55600
C246        C  0.39647851  0.20884506  0.86002922     0.84400
O247        O  0.37430485  0.15028626  0.91378356    -0.57500
O248        O  0.43874312  0.10827743  0.90607963    -0.60800
In249      In  0.63443608  0.66624974  0.88324122     1.36900
C250        C  0.68765045  0.63080697  0.91319591     0.76900
O251        O  0.66150879  0.67301174  0.82871070    -0.61600
O252        O  0.66465663  0.71555531  0.86756453    -0.52500
C253        C  0.57017439  0.64952701  0.85517614     0.69500
O254        O  0.59259001  0.62543188  0.86252342    -0.47300
C255        C  0.60324555  0.68825477  0.94313948     0.74300
O256        O  0.66814186  0.61663985  0.88856182    -0.59200
O257        O  0.61569675  0.71034470  0.92023657    -0.49300
O258        O  0.67954190  0.66236491  0.92201468    -0.55600
C259        C  0.67330488  0.70427069  0.83662645     0.84400
O260        O  0.58249561  0.68129418  0.85873803    -0.57500
O261        O  0.60665601  0.65546895  0.93475249    -0.60800
In262      In  0.35520317  0.64028829  0.12118820     1.36900
C263        C  0.30702330  0.59513050  0.09292897     0.76900
O264        O  0.33769824  0.66212793  0.17538056    -0.61600
O265        O  0.30662962  0.67270359  0.12913431    -0.52500
C266        C  0.41547696  0.61554873  0.15007268     0.69500
O267        O  0.40652027  0.64793259  0.15208850    -0.47300
C268        C  0.37644467  0.68906005  0.07313622     0.74300
O269        O  0.33130975  0.60974922  0.07373339    -0.59200
O270        O  0.36121685  0.69743388  0.10216783    -0.49300
O271        O  0.31110748  0.59908828  0.12656287    -0.55600
C272        C  0.31206843  0.67947125  0.16199338     0.84400
O273        O  0.39216737  0.59493617  0.13542696    -0.57500
O274        O  0.38286097  0.65598521  0.06967316    -0.60800
In275      In  0.62814988  0.64051172  0.14215547     1.36900
C276        C  0.67956029  0.60197045  0.11071404     0.76900
O277        O  0.60108337  0.63974103  0.08913306    -0.61600
O278        O  0.60995815  0.69073127  0.11424419    -0.52500
C279        C  0.56597759  0.61416584  0.16790892     0.69500
O280        O  0.59074072  0.59399118  0.15693444    -0.47300
C281        C  0.66880501  0.68642404  0.17985687     0.74300
O282        O  0.67515996  0.60125984  0.14455711    -0.59200
O283        O  0.66172119  0.68962614  0.14692717    -0.49300
O284        O  0.65630097  0.61958691  0.09447202    -0.55600
C285        C  0.59847817  0.67342706  0.08696384     0.84400
O286        O  0.57554254  0.64676186  0.17123346    -0.57500
O287        O  0.65499547  0.65873996  0.19459723    -0.60800
In288      In  0.35075898  0.67829234  0.87671804     1.36900
C289        C  0.30265113  0.62888639  0.90008059     0.76900
O290        O  0.37886817  0.68068410  0.92897590    -0.61600
O291        O  0.35439448  0.72856247  0.91127560    -0.52500
C292        C  0.41713315  0.65880204  0.85713544     0.69500
O293        O  0.39122523  0.63617147  0.85988785    -0.47300
C294        C  0.32257582  0.72139652  0.82756152     0.74300
O295        O  0.31957399  0.62528877  0.87065027    -0.59200
O296        O  0.31147274  0.71950306  0.85956963    -0.49300
O297        O  0.30951261  0.65787919  0.91655314    -0.55600
C298        C  0.37180951  0.71311993  0.93554390     0.84400
O299        O  0.40836142  0.69095258  0.86271163    -0.57500
O300        O  0.34510040  0.69771764  0.81946889    -0.60800
In301      In  0.37122395  0.85716323  0.12585247     1.36900
C302        C  0.40153646  0.89198024  0.18129950     0.76900
O303        O  0.31637221  0.84365493  0.15089454    -0.61600
O304        O  0.35754983  0.80478668  0.14963861    -0.52500
C305        C  0.34520273  0.88581420  0.06649562     0.69500
O306        O  0.35122446  0.90438940  0.09463907    -0.47300
C307        C  0.43056120  0.83523677  0.09393088     0.74300
O308        O  0.37855811  0.90642470  0.16124346    -0.59200
O309        O  0.40372250  0.81422859  0.09857409    -0.49300
O310        O  0.40742829  0.85954534  0.17386007    -0.55600
C311        C  0.32603587  0.81243210  0.15912182     0.84400
O312        O  0.34838387  0.85240266  0.07045784    -0.57500
O313        O  0.42610459  0.86727673  0.10415432    -0.60800
In314      In  0.65149285  0.87748974  0.86068567     1.36900
C315        C  0.62061128  0.91645488  0.80987398     0.76900
O316        O  0.69860297  0.86047415  0.82613209    -0.61600
O317        O  0.65208398  0.82576367  0.83214907    -0.52500
C318        C  0.69156957  0.88071790  0.92018846     0.69500
O319        O  0.68850842  0.90804679  0.90011470    -0.47300
C320        C  0.59518794  0.87184890  0.90310833     0.74300
O321        O  0.64685915  0.92877489  0.82873177    -0.59200
O322        O  0.60803397  0.84471252  0.88722228    -0.49300
O323        O  0.61065949  0.88474187  0.81736518    -0.55600
C324        C  0.68308625  0.83060034  0.81849263     0.84400
O325        O  0.67782891  0.85219194  0.90695399    -0.57500
O326        O  0.61140198  0.90129876  0.89643657    -0.60800
In327      In  0.63742486  0.86056836  0.13057026     1.36900
C328        C  0.60516011  0.90091553  0.18084724     0.76900
O329        O  0.58701582  0.87143104  0.10012273    -0.61600
O330        O  0.59969076  0.81730740  0.11078100    -0.52500
C331        C  0.67664912  0.87189620  0.07029891     0.69500
O332        O  0.66958989  0.89703455  0.09237961    -0.47300
C333        C  0.67451207  0.81711085  0.17207581     0.74300
O334        O  0.62936580  0.91443844  0.16043339    -0.59200
O335        O  0.64417121  0.80945550  0.15866577    -0.49300
O336        O  0.59895059  0.86790160  0.17560389    -0.55600
C337        C  0.57736979  0.83863675  0.09790913     0.84400
O338        O  0.66481722  0.84165793  0.08047129    -0.57500
O339        O  0.68716039  0.84799903  0.16427399    -0.60800
In340      In  0.39746929  0.89999124  0.85780220     1.36900
C341        C  0.43131527  0.93795608  0.80702905     0.76900
O342        O  0.44068663  0.91861195  0.89569261    -0.61600
O343        O  0.43913316  0.86407325  0.87847954    -0.52500
C344        C  0.35924460  0.90938930  0.91768524     0.69500
O345        O  0.36655515  0.93544373  0.89676941    -0.47300
C346        C  0.35754294  0.85418074  0.81909318     0.74300
O347        O  0.40609589  0.95100065  0.82602207    -0.59200
O348        O  0.38767601  0.84674109  0.83247479    -0.49300
O349        O  0.43827493  0.90576209  0.81366568    -0.55600
C350        C  0.45454379  0.88807830  0.89770253     0.84400
O351        O  0.36779737  0.87892549  0.90558623    -0.57500
O352        O  0.34764487  0.88615105  0.82468354    -0.60800
C353        C  0.58180539  0.07650905  0.27426869     0.85800
C354        C  0.54180025  0.08369959  0.26575309    -0.54400
C355        C  0.52866749  0.06470514  0.23646645     0.08700
C356        C  0.55767646  0.04139705  0.21776843     0.19700
C357        C  0.58335679  0.03484258  0.27745912    -0.55200
C358        C  0.57108011  0.01643988  0.24748037     0.08800
C359        C  0.60257800  0.08512470  0.23924620    -0.54700
C360        C  0.59007417  0.06669731  0.20980067     0.09400
H361        H  0.52440402  0.09848087  0.28398846     0.13900
H362        H  0.54759451  0.02673804  0.19339019    -0.00400
H363        H  0.59424048  0.02135069  0.30072696     0.14200
H364        H  0.62496792  0.10451740  0.23781942     0.14000
C365        C  0.42166087  0.91155217  0.21097711     0.85800
C366        C  0.41265295  0.95133837  0.21499230    -0.54400
C367        C  0.43265431  0.96983588  0.24034190     0.08700
C368        C  0.45780519  0.94462747  0.26199000     0.19700
C369        C  0.46278285  0.91126207  0.20557225    -0.55200
C370        C  0.48243992  0.92833816  0.23241434     0.08800
C371        C  0.41538102  0.89517131  0.24793660    -0.54700
C372        C  0.43418854  0.91194181  0.27489168     0.09400
H373        H  0.39424708  0.96376852  0.19664142     0.13900
H374        H  0.47212295  0.95875406  0.28435718    -0.00400
H375        H  0.47456358  0.89827191  0.18220643     0.14200
H376        H  0.39739177  0.87212055  0.25249132     0.14000
C377        C  0.58452429  0.92055399  0.20992099     0.85800
C378        C  0.59112646  0.90394781  0.24672058    -0.54400
C379        C  0.57142531  0.91825114  0.27407585     0.08700
C380        C  0.54684243  0.94897387  0.26217567     0.19700
C381        C  0.54358229  0.91684211  0.20465764    -0.55200
C382        C  0.52315142  0.93117739  0.23202183     0.08800
C383        C  0.59171118  0.96120110  0.21487700    -0.54700
C384        C  0.57204960  0.97641669  0.24225922     0.09400
H385        H  0.61020902  0.88261387  0.25085078     0.13900
H386        H  0.53167770  0.96123522  0.28478207    -0.00400
H387        H  0.53242658  0.90314396  0.18116515     0.14200
H388        H  0.60955233  0.97684597  0.19740911     0.14000
C389        C  0.43924876  0.01098424  0.23853576     0.85800
C390        C  0.47942643  0.01945790  0.23296900    -0.54400
C391        C  0.48933566  0.05487569  0.23308084     0.08700
C392        C  0.45662787  0.08004330  0.23652945     0.19700
C393        C  0.42903935  0.03177532  0.27272065    -0.55200
C394        C  0.43750986  0.06799024  0.27176390     0.08800
C395        C  0.42066112  0.03164407  0.20810521    -0.54700
C396        C  0.42977110  0.06746214  0.20636684     0.09400
H397        H  0.49914883  0.99868636  0.23123895     0.13900
H398        H  0.46408363  0.10915747  0.23584458    -0.00400
H399        H  0.41586524  0.01892160  0.29561556     0.14200
H400        H  0.40276870  0.01943878  0.18826498     0.14000
In401      In  0.88211612  0.66780377  0.64457880     1.36900
C402        C  0.90780614  0.72265859  0.60531461     0.76900
O403        O  0.83497646  0.69002136  0.67634155    -0.61600
O404        O  0.88551065  0.68297555  0.70244731    -0.52500
C405        C  0.84646511  0.60523325  0.63506783     0.69500
O406        O  0.83954176  0.63255042  0.61606832    -0.47300
C407        C  0.94079773  0.63276992  0.62947198     0.74300
O408        O  0.87945382  0.70463354  0.59671733    -0.59200
O409        O  0.93509224  0.64622069  0.66050822    -0.49300
O410        O  0.91970239  0.71590435  0.63620367    -0.55600
C411        C  0.85275238  0.69115617  0.70545791     0.84400
O412        O  0.86846068  0.61173548  0.66034278    -0.57500
O413        O  0.91588781  0.63685464  0.60697677    -0.60800
In414      In  0.90691992  0.40434332  0.60787471     1.36900
C415        C  0.92512050  0.33844921  0.58703174     0.76900
O416        O  0.92595625  0.42057760  0.55279015    -0.61600
O417        O  0.95937475  0.43240901  0.59854850    -0.52500
C418        C  0.86321643  0.45982895  0.60933037     0.69500
O419        O  0.85366877  0.43074450  0.59308292    -0.47300
C420        C  0.90020714  0.39063299  0.67743576     0.74300
O421        O  0.89426753  0.35081142  0.57931808    -0.59200
O422        O  0.92663984  0.40821641  0.66408068    -0.49300
O423        O  0.94462517  0.35922462  0.60629994    -0.55600
C424        C  0.95581199  0.43301662  0.56460493     0.84400
O425        O  0.89410294  0.45966608  0.62341078    -0.57500
O426        O  0.87723184  0.37934513  0.65451666    -0.60800
In427      In  0.14657409  0.39881582  0.56896037     1.36900
C428        C  0.11392653  0.33729918  0.55028907     0.76900
O429        O  0.17850738  0.36616673  0.60794078    -0.61600
O430        O  0.13185760  0.39475495  0.62572517    -0.52500
C431        C  0.19220011  0.45465971  0.56797879     0.69500
O432        O  0.19454446  0.42973788  0.54413800    -0.47300
C433        C  0.09443358  0.43357074  0.53878658     0.74300
O434        O  0.14658768  0.34349744  0.54026325    -0.59200
O435        O  0.09940105  0.43299398  0.57253497    -0.49300
O436        O  0.09990592  0.36230778  0.56831482    -0.55600
C437        C  0.15668644  0.37338359  0.63339244     0.84400
O438        O  0.16945621  0.44855862  0.59265159    -0.57500
O439        O  0.11855523  0.41880030  0.51970321    -0.60800
In440      In  0.14842090  0.65203404  0.61760244     1.36900
C441        C  0.11593923  0.70897785  0.58933798     0.76900
O442        O  0.10636133  0.62193988  0.58579174    -0.61600
O443        O  0.09978110  0.62646134  0.64247390    -0.52500
C444        C  0.19084979  0.59900363  0.59522242     0.69500
O445        O  0.19035684  0.62885795  0.57891150    -0.47300
C446        C  0.17802581  0.67784950  0.67825850     0.74300
O447        O  0.14018344  0.69241556  0.57200235    -0.59200
O448        O  0.15335700  0.65395061  0.67718754    -0.49300
O449        O  0.11088947  0.69787034  0.62094900    -0.55600
C450        C  0.08633786  0.61623213  0.61275695     0.84400
O451        O  0.17238286  0.59820473  0.62378116    -0.57500
O452        O  0.18932872  0.68826069  0.64769419    -0.60800
In453      In  0.12847564  0.39817217  0.84529492     1.36900
C454        C  0.18972238  0.42556514  0.87174831     0.76900
O455        O  0.15835355  0.35977948  0.80939240    -0.61600
O456        O  0.12109961  0.39576551  0.78624062    -0.52500
C457        C  0.07869148  0.35486750  0.87337573     0.69500
O458        O  0.11027618  0.35710607  0.88626297    -0.47300
C459        C  0.09507104  0.45710138  0.86467086     0.74300
O460        O  0.17856209  0.39379439  0.87848876    -0.59200
O461        O  0.10480787  0.45137589  0.83236860    -0.49300
O462        O  0.17134224  0.44178109  0.84882887    -0.55600
C463        C  0.14337683  0.37103060  0.78130719     0.84400
O464        O  0.07469806  0.37071533  0.84380037    -0.57500
O465        O  0.09991500  0.43137312  0.88576326    -0.60800
In466      In  0.87971356  0.65698801  0.91339821     1.36900
C467        C  0.81817133  0.63138404  0.93798299     0.76900
O468        O  0.84891154  0.69580769  0.88034103    -0.61600
O469        O  0.86766998  0.64729924  0.85551797    -0.52500
C470        C  0.93761232  0.69963354  0.90981704     0.69500
O471        O  0.91238257  0.70611842  0.93233183    -0.47300
C472        C  0.91291911  0.60707847  0.94778628     0.74300
O473        O  0.83052698  0.66221623  0.94814188    -0.59200
O474        O  0.91022434  0.60708732  0.91362016    -0.49300
O475        O  0.83770920  0.61406662  0.91620102    -0.55600
C476        C  0.85131558  0.67668618  0.85195430     0.84400
O477        O  0.93209025  0.67237202  0.88973485    -0.57500
O478        O  0.89990781  0.63392285  0.96425045    -0.60800
In479      In  0.13659509  0.66052854  0.88164730     1.36900
C480        C  0.18751946  0.62215224  0.91360563     0.76900
O481        O  0.10014914  0.62456168  0.91400247    -0.61600
O482        O  0.10574204  0.61506717  0.85736392    -0.52500
C483        C  0.08328338  0.70655822  0.89254761     0.69500
O484        O  0.10774937  0.70264060  0.91605693    -0.47300
C485        C  0.17060178  0.68484769  0.82334199     0.74300
O486        O  0.18032640  0.65358485  0.92522303    -0.59200
O487        O  0.14922140  0.65798298  0.82347677    -0.49300
O488        O  0.17042860  0.61270655  0.88577169    -0.55600
C489        C  0.09376974  0.60393092  0.88734013     0.84400
O490        O  0.08877192  0.68945972  0.86363991    -0.57500
O491        O  0.17537046  0.70006513  0.85376111    -0.60800
In492      In  0.89129029  0.42056245  0.90046659     1.36900
C493        C  0.82707506  0.44604723  0.91498603     0.76900
O494        O  0.90494866  0.44238722  0.95555947    -0.61600
O495        O  0.92195227  0.47132915  0.90853237    -0.52500
C496        C  0.94298679  0.37520594  0.91045456     0.69500
O497        O  0.91110376  0.36729037  0.92130788    -0.47300
C498        C  0.88769553  0.40530376  0.83103446     0.74300
O499        O  0.83555117  0.41497374  0.92589990    -0.59200
O500        O  0.90286218  0.43373942  0.84325189    -0.49300
O501        O  0.85010757  0.46149101  0.89488650    -0.55600
C502        C  0.92032938  0.47026728  0.94267787     0.84400
O503        O  0.94722943  0.40544154  0.89578322    -0.57500
O504        O  0.87191799  0.38574312  0.85433404    -0.60800
C505        C  0.20851899  0.59056346  0.06812284     0.85800
C506        C  0.21881858  0.60121509  0.02902644    -0.54400
C507        C  0.24878099  0.58436520  0.01586915     0.08700
C508        C  0.26572102  0.55900468  0.04406689     0.19700
C509        C  0.20478419  0.54882213  0.06723558    -0.55200
C510        C  0.23512960  0.53180953  0.05524409     0.08800
C511        C  0.24215894  0.59849404  0.09030047    -0.54700
C512        C  0.27230739  0.58256198  0.07791371     0.09400
H513        H  0.20212463  0.61797156  0.01240803     0.13900
H514        H  0.29001984  0.54594348  0.03390953    -0.00400
H515        H  0.17981595  0.53431293  0.07368418     0.14200
H516        H  0.24255956  0.61732200  0.11299702     0.14000
C517        C  0.22030395  0.44362443  0.89220768     0.85800
C518        C  0.21823362  0.43362176  0.93219588    -0.54400
C519        C  0.24471009  0.44865669  0.95302337     0.08700
C520        C  0.27182077  0.47263615  0.93075010     0.19700
C521        C  0.22100241  0.48536057  0.89223185    -0.55200
C522        C  0.24803232  0.50137626  0.91286027     0.08800
C523        C  0.25787652  0.43352772  0.87909511    -0.54700
C524        C  0.28507497  0.44911627  0.89878353     0.09400
H525        H  0.19575499  0.41801346  0.94321048     0.13900
H526        H  0.29463843  0.48384486  0.94682382    -0.00400
H527        H  0.20111457  0.50030078  0.87765118     0.14200
H528        H  0.26258577  0.41619849  0.85585393     0.14000
C529        C  0.24978558  0.54208111  0.92327917     0.85800
C530        C  0.26157586  0.54823429  0.96237334    -0.54400
C531        C  0.25774204  0.58179512  0.97609533     0.08700
C532        C  0.24994340  0.60939260  0.94597121     0.19700
C533        C  0.21335174  0.56154198  0.91949617    -0.55200
C534        C  0.21397956  0.59720927  0.92940472     0.08800
C535        C  0.27669591  0.56621568  0.90277096    -0.54700
C536        C  0.27744045  0.60138411  0.91487247     0.09400
H537        H  0.27263241  0.52751696  0.97853473     0.13900
H538        H  0.25047469  0.63782528  0.95553314    -0.00400
H539        H  0.18974040  0.54949881  0.90664446     0.14200
H540        H  0.29418955  0.55632601  0.88147960     0.14000
C541        C  0.24291167  0.44913751  0.99447262     0.85800
C542        C  0.23124434  0.48593174  0.00762941    -0.54400
C543        C  0.23525421  0.49287974  0.04322272     0.08700
C544        C  0.24501053  0.45834644  0.06473602     0.19700
C545        C  0.27970245  0.44204132  0.01146309    -0.55200
C546        C  0.28108825  0.44507024  0.04828388     0.08800
C547        C  0.21654563  0.42373244  0.01483681    -0.54700
C548        C  0.21666770  0.42895005  0.05165267     0.09400
H549        H  0.21851465  0.50483782  0.98999182     0.13900
H550        H  0.24588201  0.46246996  0.09442064    -0.00400
H551        H  0.30240833  0.43298984  0.99537703     0.14200
H552        H  0.19819337  0.40461774  0.00172872     0.14000
In553      In  0.13301313  0.65764695  0.37945958     1.36900
C554        C  0.10207857  0.70690031  0.42319222     0.76900
O555        O  0.18281031  0.67832375  0.34916278    -0.61600
O556        O  0.13060658  0.69090406  0.33041636    -0.52500
C557        C  0.16338634  0.59711832  0.40162299     0.69500
O558        O  0.15599718  0.62220947  0.42352845    -0.47300
C559        C  0.07728298  0.62410262  0.34878746     0.74300
O560        O  0.13545103  0.70915981  0.41543518    -0.59200
O561        O  0.10118692  0.64032374  0.33064978    -0.49300
O562        O  0.08677116  0.67874886  0.41124063    -0.55600
C563        C  0.16402382  0.69112114  0.32399796     0.84400
O564        O  0.16119547  0.60580207  0.36911292    -0.57500
O565        O  0.08270708  0.62410724  0.38228465    -0.60800
In566      In  0.12453656  0.64271135  0.12135011     1.36900
C567        C  0.17736840  0.60982861  0.08541025     0.76900
O568        O  0.15499326  0.68937637  0.14856281    -0.61600
O569        O  0.14276961  0.64216366  0.17847682    -0.52500
C570        C  0.06980151  0.68280788  0.10309598     0.69500
O571        O  0.09707362  0.67983972  0.08257341    -0.47300
C572        C  0.08176932  0.58526920  0.11961931     0.74300
O573        O  0.16535447  0.60007914  0.11562370    -0.59200
O574        O  0.09364556  0.59840606  0.14896644    -0.49300
O575        O  0.16334721  0.63811909  0.07344460    -0.55600
C576        C  0.15685370  0.67334757  0.17843970     0.84400
O577        O  0.07332008  0.66958108  0.13403034    -0.57500
O578        O  0.09027740  0.60327955  0.09223914    -0.60800
In579      In  0.13595083  0.38389138  0.11750658     1.36900
C580        C  0.18932919  0.41091155  0.07543449     0.76900
O581        O  0.09753771  0.41968770  0.09163440    -0.61600
O582        O  0.11571623  0.43365637  0.14430282    -0.52500
C583        C  0.07499148  0.34412454  0.11198946     0.69500
O584        O  0.09887542  0.34378686  0.08726056    -0.47300
C585        C  0.16965793  0.35439138  0.17187711     0.74300
O586        O  0.16879176  0.38489024  0.06538233    -0.59200
O587        O  0.15640445  0.38529991  0.17303450    -0.49300
O588        O  0.18350405  0.42162926  0.10714473    -0.55600
C589        C  0.09637577  0.44159023  0.11767248     0.84400
O590        O  0.08469415  0.36147196  0.13983178    -0.57500
O591        O  0.16623251  0.33782645  0.14199910    -0.60800
In592      In  0.12771454  0.38105980  0.36425152     1.36900
C593        C  0.11150984  0.32510378  0.40701763     0.76900
O594        O  0.07043610  0.39790012  0.35948630    -0.61600
O595        O  0.10003005  0.38897502  0.31118469    -0.52500
C596        C  0.15075595  0.44559716  0.39068037     0.69500
O597        O  0.14166117  0.41978906  0.41090837    -0.47300
C598        C  0.16811647  0.34914310  0.31401787     0.74300
O599        O  0.08838328  0.34778981  0.39849454    -0.59200
O600        O  0.13547414  0.34121300  0.32022999    -0.49300
O601        O  0.14342386  0.33352830  0.39753397    -0.55600
C602        C  0.07029889  0.39601705  0.32551568     0.84400
O603        O  0.15022079  0.43759996  0.35768106    -0.57500
O604        O  0.18165524  0.37179573  0.33622815    -0.60800
In605      In  0.87005311  0.62892925  0.12319619     1.36900
C606        C  0.81226674  0.59956565  0.09079239     0.76900
O607        O  0.90850745  0.58902481  0.10229916    -0.61600
O608        O  0.90368560  0.59570227  0.15902921    -0.52500
C609        C  0.92204679  0.67385193  0.10087814     0.69500
O610        O  0.89954640  0.65964872  0.07906206    -0.47300
C611        C  0.83627289  0.65370722  0.18099177     0.74300
O612        O  0.83495510  0.58087715  0.10681238    -0.59200
O613        O  0.84968400  0.62288954  0.17892733    -0.49300
O614        O  0.82112017  0.63248988  0.08789112    -0.55600
C615        C  0.91931346  0.58011962  0.13314763     0.84400
O616        O  0.91409799  0.66907872  0.13353017    -0.57500
O617        O  0.83982995  0.67238278  0.15284465    -0.60800
In618      In  0.88335218  0.37671926  0.37717266     1.36900
C619        C  0.92197441  0.32791980  0.41262404     0.76900
O620        O  0.84629115  0.39308489  0.33406253    -0.61600
O621        O  0.84305877  0.33834390  0.34929854    -0.52500
C622        C  0.86442158  0.43499491  0.41530426     0.69500
O623        O  0.84348665  0.40766124  0.41245053    -0.47300
C624        C  0.93054694  0.39020814  0.32559103     0.74300
O625        O  0.88775674  0.32768533  0.41419335    -0.59200
O626        O  0.91171786  0.36160628  0.32641513    -0.49300
O627        O  0.93541450  0.35439237  0.39628137    -0.55600
C628        C  0.83404335  0.36196283  0.32689847     0.84400
O629        O  0.89542389  0.43025320  0.40253094    -0.57500
O630        O  0.92351324  0.41247429  0.35038673    -0.60800
In631      In  0.88033367  0.64151853  0.37669449     1.36900
C632        C  0.90892746  0.70209520  0.40602572     0.76900
O633        O  0.93314598  0.61559495  0.38130364    -0.61600
O634        O  0.90745711  0.61514131  0.32993956    -0.52500
C635        C  0.85460245  0.58370530  0.41149223     0.69500
O636        O  0.86726588  0.61087155  0.42840671    -0.47300
C637        C  0.84060512  0.66575301  0.32368008     0.74300
O638        O  0.87590752  0.69316993  0.41006531    -0.59200
O639        O  0.87449458  0.66495054  0.32303135    -0.49300
O640        O  0.92672771  0.67968721  0.38818936    -0.55600
C641        C  0.93506057  0.60823615  0.34806001     0.84400
O642        O  0.85130955  0.58845354  0.37817628    -0.57500
O643        O  0.82613039  0.65633076  0.35321224    -0.60800
In644      In  0.87161651  0.39700793  0.12220205     1.36900
C645        C  0.81596927  0.42191373  0.08314185     0.76900
O646        O  0.83868466  0.35560441  0.15325200    -0.61600
O647        O  0.85188850  0.40604110  0.17806358    -0.52500
C648        C  0.92437825  0.34958879  0.11185102     0.69500
O649        O  0.90707599  0.36256313  0.08574525    -0.47300
C650        C  0.92173171  0.44746622  0.13090656     0.74300
O651        O  0.83855389  0.44270789  0.09842975    -0.59200
O652        O  0.89980298  0.43825217  0.15550849    -0.49300
O653        O  0.82395042  0.38901264  0.08478188    -0.55600
C654        C  0.83719561  0.37522609  0.18126402     0.84400
O655        O  0.91113151  0.35760560  0.14203161    -0.57500
O656        O  0.91658830  0.43172936  0.10095776    -0.60800
In657      In  0.42213750  0.14695094  0.60913301     1.36900
C658        C  0.45359969  0.12302456  0.66828492     0.76900
O659        O  0.39039317  0.19105003  0.63667834    -0.61600
O660        O  0.36634646  0.13915530  0.62839778    -0.52500
C661        C  0.45024660  0.18162114  0.55290374     0.69500
O662        O  0.41716996  0.18062302  0.56044125    -0.47300
C663        C  0.40355290  0.08746456  0.57417788     0.74300
O664        O  0.45198766  0.15652433  0.66258078    -0.59200
O665        O  0.38239381  0.11332639  0.57776496    -0.49300
O666        O  0.44293584  0.10356248  0.64242627    -0.55600
C667        C  0.36268990  0.17070142  0.64009671     0.84400
O668        O  0.47010161  0.16919906  0.57718036    -0.57500
O669        O  0.43517371  0.09376331  0.58560208    -0.60800
In670      In  0.14918408  0.16441313  0.62425918     1.36900
C671        C  0.11767366  0.22273053  0.59862933     0.76900
O672        O  0.18683412  0.18412225  0.66913455    -0.61600
O673        O  0.20771396  0.17252046  0.61671988    -0.52500
C674        C  0.12528811  0.10646754  0.65968934     0.69500
O675        O  0.10814814  0.13561524  0.66093067    -0.47300
C676        C  0.13678182  0.12683260  0.56556189     0.74300
O677        O  0.10896092  0.20941482  0.62894477    -0.59200
O678        O  0.16831143  0.13693151  0.57452124    -0.49300
O679        O  0.14507374  0.20919729  0.58437384    -0.55600
C680        C  0.21427709  0.18200545  0.64870976     0.84400
O681        O  0.15587553  0.10895399  0.64483587    -0.57500
O682        O  0.11230649  0.13648100  0.58678782    -0.60800
In683      In  0.14280361  0.13432115  0.36180728     1.36900
C684        C  0.11273423  0.19269729  0.39096754     0.76900
O685        O  0.10693803  0.10578228  0.40002943    -0.61600
O686        O  0.16293676  0.11063800  0.41205719    -0.52500
C687        C  0.13011830  0.07481222  0.32342231     0.69500
O688        O  0.10885440  0.10112524  0.32185621    -0.47300
C689        C  0.20365412  0.16139463  0.33690014     0.74300
O690        O  0.09743727  0.17503096  0.36546672    -0.59200
O691        O  0.20089793  0.14231587  0.36470171    -0.49300
O692        O  0.14362432  0.18189927  0.39883567    -0.55600
C693        C  0.13178641  0.10047687  0.42223933     0.84400
O694        O  0.15891970  0.08126962  0.34042212    -0.57500
O695        O  0.17449780  0.16627199  0.31987409    -0.60800
In696      In  0.41129903  0.12903639  0.36134098     1.36900
C697        C  0.42769412  0.09202576  0.30214280     0.76900
O698        O  0.45038336  0.09383551  0.38715562    -0.61600
O699        O  0.39480737  0.08416037  0.39824055    -0.52500
C700        C  0.44103495  0.17446992  0.40804736     0.69500
O701        O  0.45701042  0.16679159  0.37873638    -0.47300
C702        C  0.34968593  0.15714873  0.34291310     0.74300
O703        O  0.44183781  0.12298063  0.30817035    -0.59200
O704        O  0.35193494  0.13225528  0.36565697    -0.49300
O705        O  0.40444418  0.08194646  0.32502527    -0.55600
C706        C  0.42700105  0.07439819  0.40277768     0.84400
O707        O  0.40882255  0.16304737  0.41037111    -0.57500
O708        O  0.37931805  0.16842323  0.32960106    -0.60800
In709      In  0.13747125  0.89589948  0.62464504     1.36900
C710        C  0.09630513  0.83915394  0.60145338     0.76900
O711        O  0.13198110  0.92676420  0.57429649    -0.61600
O712        O  0.18423227  0.91008321  0.58807472    -0.52500
C713        C  0.11594927  0.95703835  0.65692082     0.69500
O714        O  0.09366460  0.93219734  0.64800797    -0.47300
C715        C  0.19120642  0.86613534  0.66076216     0.74300
O716        O  0.10486143  0.86509671  0.58147606    -0.59200
O717        O  0.18866100  0.86568014  0.62685694    -0.49300
O718        O  0.10497903  0.84415850  0.63410848    -0.55600
C719        C  0.16492309  0.92606040  0.56572748     0.84400
O720        O  0.14835301  0.94882637  0.65241041    -0.57500
O721        O  0.16452047  0.87975633  0.67687128    -0.60800
In722      In  0.40371640  0.87365041  0.37444957     1.36900
C723        C  0.42839887  0.89997765  0.31248212     0.76900
O724        O  0.37516733  0.82883239  0.34431234    -0.61600
O725        O  0.34605358  0.87578424  0.35992243    -0.52500
C726        C  0.40330283  0.83510386  0.43468818     0.69500
O727        O  0.42911427  0.83222884  0.41194143    -0.47300
C728        C  0.42391202  0.93044996  0.41086872     0.74300
O729        O  0.40716469  0.91660896  0.33297424    -0.59200
O730        O  0.39131304  0.92435893  0.40178913    -0.49300
O731        O  0.43950432  0.87021079  0.32474097    -0.55600
C732        C  0.34557908  0.84529963  0.34431636     0.84400
O733        O  0.37872386  0.85565189  0.42464682    -0.57500
O734        O  0.44590104  0.90610198  0.40236302    -0.60800
In735      In  0.39611466  0.88768520  0.63833667     1.36900
C736        C  0.43322185  0.92294860  0.69012270     0.76900
O737        O  0.41818772  0.93106058  0.60313825    -0.61600
O738        O  0.36145311  0.92391658  0.60596627    -0.52500
C739        C  0.40816206  0.84033828  0.58535323     0.69500
O740        O  0.43074354  0.86515935  0.59295379    -0.47300
C741        C  0.33591339  0.86567716  0.67022457     0.74300
O742        O  0.44362217  0.89242855  0.67900448    -0.59200
O743        O  0.33786063  0.89186557  0.64884378    -0.49300
O744        O  0.40364600  0.93219129  0.67722335    -0.55600
C745        C  0.38778868  0.94239953  0.59406023     0.84400
O746        O  0.38466575  0.83512621  0.60939685    -0.57500
O747        O  0.36555054  0.85049960  0.67643376    -0.60800
In748      In  0.15203263  0.86934573  0.36638206     1.36900
C749        C  0.10805164  0.82087651  0.39824014     0.76900
O750        O  0.17773750  0.84453991  0.31608696    -0.61600
O751        O  0.20100829  0.83697040  0.36742198    -0.52500
C752        C  0.13278676  0.92558479  0.32748192     0.69500
O753        O  0.11102074  0.89949247  0.33352403    -0.47300
C754        C  0.17024326  0.91106604  0.42211040     0.74300
O755        O  0.09900698  0.83768423  0.37024628    -0.59200
O756        O  0.19314192  0.89959372  0.39990283    -0.49300
O757        O  0.13999478  0.82717440  0.40814550    -0.55600
C758        C  0.20378662  0.83257881  0.33392238     0.84400
O759        O  0.16454998  0.92067596  0.33801984    -0.57500
O760        O  0.13808058  0.90189594  0.41495374    -0.60800
In761      In  0.62997873  0.89802403  0.61299149     1.36900
C762        C  0.60870991  0.92388614  0.67732589     0.76900
O763        O  0.66901864  0.86078618  0.63962090    -0.61600
O764        O  0.68932536  0.90017124  0.60308836    -0.52500
C765        C  0.59440537  0.85371567  0.56815047     0.69500
O766        O  0.58019854  0.86512253  0.59700447    -0.47300
C767        C  0.62247544  0.95529868  0.57360283     0.74300
O768        O  0.61442808  0.94381179  0.65075745    -0.59200
O769        O  0.65187184  0.94870691  0.58919530    -0.49300
O770        O  0.61184707  0.89067318  0.67060400    -0.55600
C771        C  0.69624759  0.87500794  0.62432996     0.84400
O772        O  0.62777661  0.86057256  0.56551013    -0.57500
O773        O  0.59814714  0.93129658  0.57636613    -0.60800
In774      In  0.63330351  0.13237409  0.35977975     1.36900
C775        C  0.59831079  0.09698673  0.30626526     0.76900
O776        O  0.65052980  0.18047533  0.32686847    -0.61600
O777        O  0.68690754  0.13741598  0.33492844    -0.52500
C778        C  0.63389258  0.17679863  0.41711347     0.69500
O779        O  0.60581014  0.17295747  0.39746490    -0.47300
C780        C  0.63947376  0.07822217  0.40392548     0.74300
O781        O  0.58307519  0.12160181  0.32460755    -0.59200
O782        O  0.66560934  0.09119396  0.38595161    -0.49300
O783        O  0.63026390  0.09117234  0.31573534    -0.55600
C784        C  0.68195835  0.16836234  0.32238761     0.84400
O785        O  0.66036457  0.15932131  0.40571237    -0.57500
O786        O  0.60959046  0.09298980  0.39834866    -0.60800
In787      In  0.64432508  0.14767830  0.62399108     1.36900
C788        C  0.61540040  0.11157120  0.67934613     0.76900
O789        O  0.60496382  0.12094733  0.58830701    -0.61600
O790        O  0.65887543  0.10069291  0.59188856    -0.52500
C791        C  0.64274021  0.18932080  0.56655502     0.69500
O792        O  0.61757911  0.19025286  0.59020624    -0.47300
C793        C  0.70061406  0.17589023  0.65721565     0.74300
O794        O  0.63962850  0.09900546  0.65920341    -0.59200
O795        O  0.70147146  0.14681092  0.63920144    -0.49300
O796        O  0.60430583  0.14244292  0.67021874    -0.55600
C797        C  0.62727074  0.09729847  0.57881921     0.84400
O798        O  0.66930683  0.17068955  0.57546930    -0.57500
O799        O  0.67024708  0.19088978  0.65893398    -0.60800
In800      In  0.60207016  0.88695711  0.37545299     1.36900
C801        C  0.57642707  0.90581153  0.31131537     0.76900
O802        O  0.59344397  0.94031244  0.39997741    -0.61600
O803        O  0.63954883  0.91183374  0.41654941    -0.52500
C804        C  0.56517018  0.85076176  0.42569023     0.69500
O805        O  0.55886627  0.88274597  0.41766441    -0.47300
C806        C  0.66838868  0.86582205  0.35997189     0.74300
O807        O  0.57784151  0.92710758  0.33767284    -0.59200
O808        O  0.65822064  0.89756306  0.35514753    -0.49300
O809        O  0.58358836  0.87369352  0.31882506    -0.55600
C810        C  0.62170897  0.94018840  0.41875292     0.84400
O811        O  0.58463691  0.83514314  0.40274891    -0.57500
O812        O  0.64382978  0.84412581  0.37037916    -0.60800
In813      In  0.87030569  0.16000710  0.37073839     1.36900
C814        C  0.91362895  0.20959293  0.40230506     0.76900
O815        O  0.84965247  0.18708732  0.32070822    -0.61600
O816        O  0.81643601  0.18433560  0.36758129    -0.52500
C817        C  0.88655167  0.10224327  0.33143668     0.69500
O818        O  0.90920568  0.12781746  0.33668750    -0.47300
C819        C  0.86069939  0.11621900  0.42571933     0.74300
O820        O  0.92188226  0.19263360  0.37378105    -0.59200
O821        O  0.83454942  0.13144453  0.41095920    -0.49300
O822        O  0.88191145  0.20329880  0.41331653    -0.55600
C823        C  0.81909808  0.19256276  0.33476866     0.84400
O824        O  0.85510478  0.10897044  0.34220606    -0.57500
O825        O  0.89105846  0.12433057  0.41238022    -0.60800
In826      In  0.91493890  0.89619756  0.63201563     1.36900
C827        C  0.94226445  0.83988442  0.59601293     0.76900
O828        O  0.87180118  0.86001289  0.65739192    -0.61600
O829        O  0.85784124  0.89828241  0.61739943    -0.52500
C830        C  0.92857545  0.94300521  0.68533218     0.69500
O831        O  0.95377834  0.93006899  0.66649550    -0.47300
C832        C  0.92270554  0.94598582  0.58311177     0.74300
O833        O  0.94507463  0.84241005  0.63012893    -0.59200
O834        O  0.89241541  0.93271953  0.59236958    -0.49300
O835        O  0.92810393  0.86646154  0.58176823    -0.55600
C836        C  0.84737813  0.87339513  0.63808755     0.84400
O837        O  0.89923152  0.92556265  0.68224230    -0.57500
O838        O  0.94916567  0.93545610  0.60122918    -0.60800
In839      In  0.89812397  0.14313219  0.62681584     1.36900
C840        C  0.93037117  0.20323539  0.59958710     0.76900
O841        O  0.91046817  0.10729398  0.58012464    -0.61600
O842        O  0.85749231  0.12667306  0.58579152    -0.52500
C843        C  0.91523260  0.08828550  0.67048078     0.69500
O844        O  0.93767739  0.11372696  0.66374427    -0.47300
C845        C  0.84180014  0.17228082  0.65731007     0.74300
O846        O  0.93648599  0.17240425  0.58680816    -0.59200
O847        O  0.84176704  0.15917077  0.62579134    -0.49300
O848        O  0.91310877  0.20235174  0.62888064    -0.55600
C849        C  0.87888246  0.10790915  0.56749827     0.84400
O850        O  0.88522453  0.09226306  0.65569866    -0.57500
O851        O  0.87111994  0.16983075  0.67446721    -0.60800
In852      In  0.88436292  0.89893581  0.39007411     1.36900
C853        C  0.91488795  0.83743699  0.41107630     0.76900
O854        O  0.92431441  0.93292428  0.41936419    -0.61600
O855        O  0.87097625  0.92839569  0.44073888    -0.52500
C856        C  0.89390711  0.95403849  0.34543290     0.69500
O857        O  0.91767200  0.93013368  0.34838782    -0.47300
C858        C  0.81959373  0.87353334  0.37225736     0.74300
O859        O  0.89952420  0.85861331  0.43255301    -0.59200
O860        O  0.82618033  0.89057494  0.40125744    -0.49300
O861        O  0.91626598  0.84831044  0.37872440    -0.55600
C862        C  0.90258243  0.94181232  0.44399028     0.84400
O863        O  0.86484499  0.94709786  0.36196096    -0.57500
O864        O  0.84662404  0.86923261  0.35184025    -0.60800
C865        C  0.93934769  0.30276179  0.57319463     0.85800
C866        C  0.92537023  0.26953420  0.59308984    -0.54400
C867        C  0.93991967  0.23795590  0.58132588     0.08700
C868        C  0.96638766  0.24301245  0.54881180     0.19700
C869        C  0.98086221  0.30064192  0.57661503    -0.55200
C870        C  0.99587718  0.26979990  0.56310153     0.08800
C871        C  0.93149046  0.29551602  0.53301623    -0.54700
C872        C  0.94586428  0.26469083  0.51951195     0.09400
H873        H  0.90638784  0.27105335  0.61544065     0.13900
H874        H  0.97682074  0.21708285  0.53865146    -0.00400
H875        H  0.99696703  0.32249828  0.58829037     0.14200
H876        H  0.91948482  0.31539610  0.51577236     0.14000
C877        C  0.03707390  0.26686827  0.55626484     0.85800
C878        C  0.05562823  0.30405803  0.54945071    -0.54400
C879        C  0.09207497  0.30374184  0.54386886     0.08700
C880        C  0.10638555  0.26555203  0.54154225     0.19700
C881        C  0.04733992  0.24319846  0.52364402    -0.55200
C882        C  0.08214522  0.24654722  0.51250723     0.08800
C883        C  0.05898038  0.25068982  0.58653926    -0.54700
C884        C  0.09513263  0.24834278  0.57871501     0.09400
H885        H  0.04164750  0.32932656  0.55097264     0.13900
H886        H  0.13573813  0.26430757  0.53557418    -0.00400
H887        H  0.02835702  0.22682073  0.50830741     0.14200
H888        H  0.04642000  0.23846311  0.61009071     0.14000
C889        C  0.09653389  0.22394994  0.41163337     0.85800
C890        C  0.11496815  0.25972786  0.40254147    -0.54400
C891        C  0.10155546  0.28866538  0.42047320     0.08700
C892        C  0.07096103  0.27840791  0.44774190     0.19700
C893        C  0.10034738  0.22044183  0.45281752    -0.55200
C894        C  0.08764893  0.24884101  0.47224600     0.08800
C895        C  0.05600973  0.22987820  0.40549022    -0.54700
C896        C  0.04131902  0.25795342  0.42498255     0.09400
H897        H  0.13528203  0.26226314  0.38139226     0.13900
H898        H  0.06064835  0.30181651  0.46303913    -0.00400
H899        H  0.11069113  0.19660620  0.46558281     0.14200
H900        H  0.04090850  0.21173050  0.38801602     0.14000
C901        C  0.99965707  0.26273027  0.43057243     0.85800
C902        C  0.97575733  0.23214991  0.41406699    -0.54400
C903        C  0.93981324  0.23397249  0.42131035     0.08700
C904        C  0.93023243  0.26539617  0.44678896     0.19700
C905        C  0.98163773  0.29721692  0.41760083    -0.55200
C906        C  0.94512714  0.29885375  0.42616991     0.08800
C907        C  0.99058612  0.26359987  0.47052570    -0.54700
C908        C  0.95529630  0.26195164  0.48003161     0.09400
H909        H  0.98540778  0.21119163  0.39638466     0.13900
H910        H  0.90105076  0.26659970  0.45358568    -0.00400
H911        H  0.99608582  0.31788836  0.40243233     0.14200
H912        H  0.00804675  0.27874339  0.48843700     0.14000
C913        C  0.89753941  0.99658185  0.71156544    -0.02500
C914        C  0.93021043  0.97993489  0.70213219     0.07100
C915        C  0.96115083  0.00242852  0.69766763    -0.02700
C916        C  0.95739998  0.03991105  0.69253592    -0.02700
C917        C  0.92260441  0.05462882  0.69113572     0.07300
C918        C  0.89334716  0.03356502  0.70493269    -0.02900
Br919      Br  0.84719766  0.05476356  0.71470242    -0.01400
Br920      Br  0.85824600  0.96890400  0.73289840    -0.01500
Br921      Br  0.99961558  0.07049935  0.68778227    -0.01400
Br922      Br  0.00830987  0.98189794  0.69944842    -0.01400
C923        C  0.89472609  0.98167724  0.53589587    -0.02500
C924        C  0.92636180  0.96704680  0.54992387     0.07100
C925        C  0.95563152  0.96048486  0.52643941    -0.02700
C926        C  0.94968531  0.95964975  0.48910711    -0.02700
C927        C  0.91403400  0.96274185  0.47619490     0.07300
C928        C  0.88783094  0.97830538  0.49885263    -0.02900
Br929      Br  0.84193686  0.99266691  0.48000721    -0.01400
Br930      Br  0.85946223  0.00206212  0.56822540    -0.01500
Br931      Br  0.98981536  0.95006187  0.45711645    -0.01400
Br932      Br  0.00192253  0.94606876  0.54425261    -0.01400
C933        C  0.88905785  0.07810943  0.47154067    -0.02500
C934        C  0.85759607  0.09392912  0.45835997     0.07100
C935        C  0.82762445  0.09703419  0.48153769    -0.02700
C936        C  0.83304173  0.09546302  0.51896071    -0.02700
C937        C  0.86854843  0.09151843  0.53232856     0.07300
C938        C  0.89528258  0.07799179  0.50878318    -0.02900
Br939      Br  0.94141761  0.06203221  0.52594292    -0.01400
Br940      Br  0.92429054  0.05858438  0.43858679    -0.01500
Br941      Br  0.79207355  0.10038607  0.55099356    -0.01400
Br942      Br  0.78003569  0.10525121  0.46269222    -0.01400
C943        C  0.92907693  0.01232847  0.33810774    -0.02500
C944        C  0.89961318  0.98962766  0.32793657     0.07100
C945        C  0.87103287  0.00445722  0.30846309    -0.02700
C946        C  0.86866558  0.04204522  0.30501267    -0.02700
C947        C  0.89596855  0.06516795  0.31939060     0.07300
C948        C  0.92811263  0.04976094  0.33186950    -0.02900
Br949      Br  0.96979870  0.07971140  0.34366845    -0.01400
Br950      Br  0.96781367  0.99380468  0.36644206    -0.01500
Br951      Br  0.82660744  0.06159071  0.28256261    -0.01400
Br952      Br  0.83365696  0.97332033  0.28863488    -0.01400
C953        C  0.76161223  0.84475332  0.39139237    -0.02500
C954        C  0.78255443  0.86054981  0.36371064     0.07100
C955        C  0.76605635  0.86901663  0.33070661    -0.02700
C956        C  0.72807486  0.86802626  0.32810501    -0.02700
C957        C  0.70688050  0.85663357  0.35774971     0.07300
C958        C  0.72384053  0.84248923  0.38836205    -0.02900
Br959      Br  0.69573615  0.82396071  0.42835114    -0.01400
Br960      Br  0.78486459  0.82707008  0.43411055    -0.01500
Br961      Br  0.70490854  0.88363238  0.28458215    -0.01400
Br962      Br  0.79483115  0.88364156  0.28977160    -0.01400
C963        C  0.75187327  0.17197245  0.69925199    -0.02500
C964        C  0.73404203  0.19134524  0.67250733     0.07100
C965        C  0.75385475  0.21577005  0.65107353    -0.02700
C966        C  0.79155612  0.21341154  0.64940403    -0.02700
C967        C  0.80908948  0.18876981  0.67156047     0.07300
C968        C  0.78982856  0.17177806  0.69962775    -0.02900
Br969      Br  0.81489232  0.14462748  0.73519233    -0.01400
Br970      Br  0.72416544  0.14227349  0.73196631    -0.01500
Br971      Br  0.81871970  0.23967406  0.61321189    -0.01400
Br972      Br  0.72897568  0.24836903  0.62038437    -0.01400
C973        C  0.60815283  0.99588656  0.45148591    -0.02500
C974        C  0.63433136  0.97277807  0.43760426     0.07100
C975        C  0.66878583  0.98675142  0.42869012    -0.02700
C976        C  0.67316529  0.02387301  0.42308319    -0.02700
C977        C  0.64278200  0.04611309  0.42680900     0.07300
C978        C  0.61243827  0.03302748  0.44634513    -0.02900
Br979      Br  0.57604233  0.06488323  0.46441270    -0.01400
Br980      Br  0.56486760  0.97582526  0.47327142    -0.01500
Br981      Br  0.71978525  0.04243401  0.40746266    -0.01400
Br982      Br  0.70833798  0.95492841  0.41929747    -0.01400
C983        C  0.67027398  0.20135993  0.46976348    -0.02500
C984        C  0.63624809  0.19648988  0.45276600     0.07100
C985        C  0.60516087  0.20479760  0.47311927    -0.02700
C986        C  0.60705730  0.20749120  0.51126849    -0.02700
C987        C  0.64056955  0.20360010  0.52891062     0.07300
C988        C  0.67236120  0.20516300  0.50756368    -0.02900
Br989      Br  0.71930060  0.21139540  0.52977944    -0.01400
Br990      Br  0.71459508  0.20306895  0.44184007    -0.01500
Br991      Br  0.56357549  0.21537793  0.53867539    -0.01400
Br992      Br  0.56077541  0.21453629  0.44889794    -0.01400
C993        C  0.73689858  0.17142432  0.28464696    -0.02500
C994        C  0.71274255  0.18925516  0.30771346     0.07100
C995        C  0.72496819  0.21981619  0.32730256    -0.02700
C996        C  0.76233228  0.22615684  0.33134684    -0.02700
C997        C  0.78683015  0.20289579  0.31447452     0.07300
C998        C  0.77415802  0.17919667  0.28716908    -0.02900
Br999      Br  0.80766038  0.15326671  0.25746332    -0.01400
Br1000     Br  0.71913105  0.13261939  0.25404413    -0.01500
Br1001     Br  0.78017356  0.26327175  0.36377060    -0.01400
Br1002     Br  0.69121697  0.24869688  0.35387299    -0.01400
C1003       C  0.64361190  0.00915465  0.53999976    -0.02500
C1004       C  0.61559960  0.99049387  0.55817645     0.07100
C1005       C  0.58443122  0.00883476  0.56951000    -0.02700
C1006       C  0.58471823  0.04648014  0.56906629    -0.02700
C1007       C  0.61651356  0.06509096  0.55827562     0.07300
C1008       C  0.64355179  0.04680160  0.53926356    -0.02900
Br1009     Br  0.68272666  0.07360729  0.51675793    -0.01400
Br1010     Br  0.68405542  0.98359247  0.52038265    -0.01500
Br1011     Br  0.54442770  0.07146488  0.59045557    -0.01400
Br1012     Br  0.54435790  0.98406390  0.59307842    -0.01400
C1013       C  0.58878994  0.81263764  0.51463369    -0.02500
C1014       C  0.57367644  0.83940148  0.53676328     0.07100
C1015       C  0.54471701  0.85929315  0.52331550    -0.02700
C1016       C  0.53613286  0.85733025  0.48636000    -0.02700
C1017       C  0.55733741  0.83658536  0.46254156     0.07300
C1018       C  0.58030732  0.81077002  0.47757799    -0.02900
Br1019     Br  0.60273369  0.77471356  0.44774036    -0.01400
Br1020     Br  0.62308753  0.78036362  0.53497153    -0.01500
Br1021     Br  0.49690744  0.88512576  0.46819140    -0.01400
Br1022     Br  0.51970232  0.89290296  0.55388692    -0.01400
C1023       C  0.75529009  0.85455003  0.60088011    -0.02500
C1024       C  0.73368273  0.86407382  0.63064256     0.07100
C1025       C  0.74942779  0.86830191  0.66509816    -0.02700
C1026       C  0.78727812  0.86684326  0.66886594    -0.02700
C1027       C  0.80910248  0.86172276  0.63810007     0.07300
C1028       C  0.79293412  0.85338748  0.60460335    -0.02900
Br1029     Br  0.82280682  0.84231613  0.56323519    -0.01400
Br1030     Br  0.73333998  0.84453043  0.55458376    -0.01500
Br1031     Br  0.80933234  0.87548660  0.71525604    -0.01400
Br1032     Br  0.71976184  0.88035877  0.70621025    -0.01400
C1033       C  0.25728794  0.84208947  0.29507917    -0.02500
C1034       C  0.23781153  0.81914222  0.31847879     0.07100
C1035       C  0.25706571  0.79495957  0.33969979    -0.02700
C1036       C  0.29429052  0.80077063  0.34533448    -0.02700
C1037       C  0.31202048  0.83015127  0.32865828     0.07300
C1038       C  0.29428144  0.84895504  0.30135469    -0.02900
Br1039     Br  0.31981350  0.88614358  0.27497553    -0.01400
Br1040     Br  0.23268174  0.86683744  0.25743024    -0.01500
Br1041     Br  0.31934441  0.77219111  0.37988860    -0.01400
Br1042     Br  0.23091142  0.75753545  0.36507166    -0.01400
C1043       C  0.43471819  0.81235997  0.52880036    -0.02500
C1044       C  0.40461838  0.82471460  0.54834901     0.07100
C1045       C  0.37130933  0.82770702  0.53021456    -0.02700
C1046       C  0.36980166  0.82380738  0.49249208    -0.02700
C1047       C  0.40192329  0.81984759  0.47212780     0.07300
C1048       C  0.43319894  0.80922206  0.49063666    -0.02900
Br1049     Br  0.47229694  0.78779146  0.46446137    -0.01400
Br1050     Br  0.47723104  0.79909927  0.55470852    -0.01500
Br1051     Br  0.32317686  0.82395078  0.46906220    -0.01400
Br1052     Br  0.32805573  0.84201926  0.55556480    -0.01400
C1053       C  0.28093195  0.87865049  0.70530896    -0.02500
C1054       C  0.30051214  0.85389301  0.68463874     0.07100
C1055       C  0.28203199  0.82508819  0.66744476    -0.02700
C1056       C  0.24416473  0.82581320  0.66407567    -0.02700
C1057       C  0.22498721  0.85503416  0.67863257     0.07300
C1058       C  0.24300452  0.87901951  0.70274766    -0.02900
Br1059     Br  0.21710415  0.91527003  0.72875840    -0.01400
Br1060     Br  0.30695676  0.91437294  0.73378547    -0.01500
Br1061     Br  0.21883158  0.78837689  0.63728229    -0.01400
Br1062     Br  0.30907909  0.78730577  0.64489967    -0.01400
C1063       C  0.20892570  0.92449608  0.51384097    -0.02500
C1064       C  0.17805340  0.93923729  0.53035412     0.07100
C1065       C  0.15426826  0.95892143  0.50901805    -0.02700
C1066       C  0.15416983  0.95353905  0.47157714    -0.02700
C1067       C  0.17970051  0.93068399  0.45567656     0.07300
C1068       C  0.20995175  0.92061020  0.47603109    -0.02900
Br1069     Br  0.25103772  0.89855710  0.45326244    -0.01400
Br1070     Br  0.24859485  0.90761607  0.54222351    -0.01500
Br1071     Br  0.11766570  0.97552827  0.44267967    -0.01400
Br1072     Br  0.12063994  0.99148660  0.53113697    -0.01400
C1073       C  0.46668073  0.02111075  0.40918260    -0.02500
C1074       C  0.43608398  0.04044870  0.42081018     0.07100
C1075       C  0.41014106  0.02313045  0.44306533    -0.02700
C1076       C  0.40986174  0.98548780  0.44575512    -0.02700
C1077       C  0.43526686  0.96563690  0.42598781     0.07300
C1078       C  0.46605989  0.98341608  0.41155316    -0.02900
Br1079     Br  0.50459501  0.95678496  0.38915012    -0.01400
Br1080     Br  0.50761449  0.04427215  0.38544671    -0.01500
Br1081     Br  0.37244184  0.96071553  0.47304024    -0.01400
Br1082     Br  0.37362535  0.05036350  0.46780093    -0.01400
C1083       C  0.09379649  0.01788992  0.32999363    -0.02500
C1084       C  0.12121296  0.03740665  0.31148232     0.07100
C1085       C  0.14636032  0.01842269  0.29043656    -0.02700
C1086       C  0.14646407  0.98047798  0.29100000    -0.02700
C1087       C  0.12228437  0.96124989  0.31361568     0.07300
C1088       C  0.09415536  0.97990006  0.33087786    -0.02900
Br1089     Br  0.05917156  0.95417665  0.36028599    -0.01400
Br1090     Br  0.05969327  0.04307741  0.35979089    -0.01500
Br1091     Br  0.18115016  0.95470315  0.26240301    -0.01400
Br1092     Br  0.18306527  0.04457664  0.26379001    -0.01400
C1093       C  0.25877714  0.15859813  0.29940346    -0.02500
C1094       C  0.23937570  0.17602958  0.32687917     0.07100
C1095       C  0.25810092  0.19591231  0.35373197    -0.02700
C1096       C  0.29562741  0.19275999  0.35704928    -0.02700
C1097       C  0.31440847  0.17080453  0.33260722     0.07300
C1098       C  0.29645291  0.15554727  0.30250600    -0.02900
Br1099     Br  0.32259565  0.12582398  0.26889499    -0.01400
Br1100     Br  0.23308734  0.13449989  0.26075207    -0.01500
Br1101     Br  0.32051803  0.21445815  0.39767865    -0.01400
Br1102     Br  0.23122753  0.22298922  0.38909359    -0.01400
C1103       C  0.12878791  0.05057553  0.69586952    -0.02500
C1104       C  0.11037148  0.07063446  0.67015723     0.07100
C1105       C  0.08563597  0.05259468  0.64691928    -0.02700
C1106       C  0.08353566  0.01458930  0.64591198    -0.02700
C1107       C  0.10634531  0.99436632  0.66794570     0.07300
C1108       C  0.12680114  0.01262413  0.69481998    -0.02900
Br1109     Br  0.15349639  0.98567547  0.72924606    -0.01400
Br1110     Br  0.15860413  0.07547030  0.73095168    -0.01500
Br1111     Br  0.05271047  0.99077971  0.61101926    -0.01400
Br1112     Br  0.05776638  0.07946471  0.61313396    -0.01400
C1113       C  0.15377392  0.07647915  0.47973327    -0.02500
C1114       C  0.12474612  0.08882135  0.45928651     0.07100
C1115       C  0.09385239  0.10186405  0.47699231    -0.02700
C1116       C  0.09653604  0.11277386  0.51313424    -0.02700
C1117       C  0.12902809  0.10702210  0.53201588     0.07300
C1118       C  0.15575875  0.08523940  0.51647989    -0.02900
Br1119     Br  0.19568539  0.06850940  0.54473075    -0.01400
Br1120     Br  0.19189553  0.04997453  0.45675183    -0.01500
Br1121     Br  0.05733613  0.14010194  0.53362572    -0.01400
Br1122     Br  0.04915084  0.10902429  0.45139969    -0.01400
C1123       C  0.30725032  0.15762704  0.67598040    -0.02500
C1124       C  0.32742338  0.18197838  0.65438155     0.07100
C1125       C  0.31041447  0.21208713  0.63979604    -0.02700
C1126       C  0.27273487  0.21528225  0.64329892    -0.02700
C1127       C  0.25200506  0.18794415  0.66015031     0.07300
C1128       C  0.26948069  0.16019895  0.67823500    -0.02900
Br1129     Br  0.24141458  0.12279697  0.70159305    -0.01400
Br1130     Br  0.33113274  0.11894180  0.70013617    -0.01500
Br1131     Br  0.24862257  0.25531500  0.62211735    -0.01400
Br1132     Br  0.33727983  0.24591247  0.61030276    -0.01400
C1133       C  0.35839786  0.03663702  0.57565451    -0.02500
C1134       C  0.39173049  0.05094236  0.56290137     0.07100
C1135       C  0.41763302  0.02752558  0.54877106    -0.02700
C1136       C  0.41375020  0.99039573  0.55437728    -0.02700
C1137       C  0.38413873  0.97675651  0.57463604     0.07300
C1138       C  0.35477884  0.99947174  0.58218866    -0.02900
Br1139     Br  0.31125562  0.98169772  0.60578210    -0.01400
Br1140     Br  0.31901792  0.06771531  0.58855476    -0.01500
Br1141     Br  0.45016078  0.95885376  0.53561254    -0.01400
Br1142     Br  0.45959020  0.04659275  0.52363480    -0.01400
C1143       C  0.48465883  0.16787998  0.49643063    -0.02500
C1144       C  0.46269396  0.19170595  0.51623508     0.07100
C1145       C  0.44415948  0.21855266  0.49759038    -0.02700
C1146       C  0.44233149  0.21737655  0.45966791    -0.02700
C1147       C  0.45908237  0.18958532  0.44038134     0.07300
C1148       C  0.48314615  0.16726425  0.45848298    -0.02900
Br1149     Br  0.51076245  0.13267054  0.43157481    -0.01400
Br1150     Br  0.51228763  0.13189369  0.52038179    -0.01500
Br1151     Br  0.41425758  0.25159079  0.43389283    -0.01400
Br1152     Br  0.41812309  0.25460644  0.52415642    -0.01400
C1153       C  0.79926537  0.38320249  0.27471925    -0.02500
C1154       C  0.81673804  0.35450889  0.29142926     0.07100
C1155       C  0.82948554  0.32607341  0.26950708    -0.02700
C1156       C  0.83232808  0.33064825  0.23179883    -0.02700
C1157       C  0.82178981  0.36332160  0.21622735     0.07300
C1158       C  0.80238893  0.38803663  0.23730843    -0.02900
Br1159     Br  0.78268606  0.43021889  0.21540461    -0.01400
Br1160     Br  0.77460085  0.41827213  0.30369115    -0.01500
Br1161     Br  0.85534706  0.29432199  0.20277269    -0.01400
Br1162     Br  0.84758027  0.28294876  0.29085435    -0.01400
C1163       C  0.87897707  0.49355456  0.44702254    -0.02500
C1164       C  0.85368715  0.47141672  0.42816302     0.07100
C1165       C  0.82256074  0.48732387  0.41397303    -0.02700
C1166       C  0.82011626  0.52516432  0.41312819    -0.02700
C1167       C  0.84827092  0.54734982  0.42711773     0.07300
C1168       C  0.87582634  0.53138429  0.44725887    -0.02900
Br1169     Br  0.91154092  0.56096937  0.47213250    -0.01400
Br1170     Br  0.91924769  0.47208762  0.47090018    -0.01500
Br1171     Br  0.77931330  0.54696755  0.39041496    -0.01400
Br1172     Br  0.78516431  0.45810491  0.39156030    -0.01400
C1173       C  0.83404056  0.70208201  0.26889324    -0.02500
C1174       C  0.82101459  0.67340315  0.29029253     0.07100
C1175       C  0.80053514  0.64524610  0.27407441    -0.02700
C1176       C  0.80023891  0.64182582  0.23627059    -0.02700
C1177       C  0.82024049  0.66659080  0.21512602     0.07300
C1178       C  0.83324969  0.69893163  0.23105704    -0.02900
Br1179     Br  0.85439469  0.73661692  0.20187928    -0.01400
Br1180     Br  0.85777179  0.74305356  0.29176532    -0.01500
Br1181     Br  0.77557190  0.60139451  0.21332337    -0.01400
Br1182     Br  0.77863788  0.60791336  0.30319568    -0.01400
C1183       C  0.95954874  0.53401064  0.10716881    -0.02500
C1184       C  0.94504616  0.55085050  0.13808874     0.07100
C1185       C  0.94595910  0.53225514  0.17108631    -0.02700
C1186       C  0.94901616  0.49472055  0.16985983    -0.02700
C1187       C  0.94831123  0.47719690  0.13612203     0.07300
C1188       C  0.96082286  0.49638506  0.10595056    -0.02900
Br1189     Br  0.97548125  0.47167029  0.06253587    -0.01400
Br1190     Br  0.97382490  0.56161774  0.06587015    -0.01500
Br1191     Br  0.94998216  0.46668460  0.21304688    -0.01400
Br1192     Br  0.93954717  0.55650133  0.21685862    -0.01400
C1193       C  0.01935288  0.36523374  0.29501212    -0.02500
C1194       C  0.03689648  0.39776806  0.30499056     0.07100
C1195       C  0.01817876  0.43003698  0.30422823    -0.02700
C1196       C  0.98040209  0.42878905  0.30258115    -0.02700
C1197       C  0.96226480  0.39498144  0.30199872     0.07300
C1198       C  0.98161780  0.36404636  0.29211523    -0.02900
Br1199     Br  0.95723603  0.31874171  0.28100927    -0.01400
Br1200     Br  0.04618218  0.32139308  0.29177115    -0.01500
Br1201     Br  0.95366542  0.47257948  0.30707110    -0.01400
Br1202     Br  0.04435704  0.47502968  0.30865282    -0.01400
C1203       C  0.97907202  0.32200098  0.14025002    -0.02500
C1204       C  0.96030816  0.33167201  0.10868615     0.07100
C1205       C  0.97955802  0.33123677  0.07571423    -0.02700
C1206       C  0.01783765  0.33066903  0.07569080    -0.02700
C1207       C  0.03694554  0.32964691  0.10867517     0.07300
C1208       C  0.01714571  0.32155712  0.14036251    -0.02900
Br1209     Br  0.04208126  0.31068335  0.18453516    -0.01400
Br1210     Br  0.95323389  0.30868766  0.18355240    -0.01500
Br1211     Br  0.04339518  0.33315961  0.03055593    -0.01400
Br1212     Br  0.95363389  0.33033978  0.03069880    -0.01400
C1213       C  0.21046363  0.36114766  0.22416763    -0.02500
C1214       C  0.18570984  0.33939735  0.20457477     0.07100
C1215       C  0.16807426  0.31041159  0.22184883    -0.02700
C1216       C  0.16861474  0.30870422  0.25978000    -0.02700
C1217       C  0.18575126  0.33676370  0.28000644     0.07300
C1218       C  0.21083297  0.35970122  0.26211469    -0.02900
Br1219     Br  0.24322799  0.39131160  0.28874237    -0.01400
Br1220     Br  0.24098335  0.39521111  0.19862955    -0.01500
Br1221     Br  0.14336690  0.26976623  0.28398741    -0.01400
Br1222     Br  0.13922515  0.27635827  0.19413498    -0.01400
C1223       C  0.01361887  0.71625386  0.11533692    -0.02500
C1224       C  0.03407809  0.69526793  0.09137353     0.07100
C1225       C  0.01636193  0.67674637  0.06286823    -0.02700
C1226       C  0.97830661  0.67380129  0.06257739    -0.02700
C1227       C  0.95784887  0.68985307  0.09050222     0.07300
C1228       C  0.97562246  0.71386034  0.11474719    -0.02900
Br1229     Br  0.94817559  0.74133001  0.14927803    -0.01400
Br1230     Br  0.03797008  0.74584306  0.15106227    -0.01500
Br1231     Br  0.95540790  0.64374974  0.02641321    -0.01400
Br1232     Br  0.04392460  0.65066740  0.02725426    -0.01400
C1233       C  0.06388680  0.49191563  0.14788347    -0.02500
C1234       C  0.07643139  0.47527682  0.11596013     0.07100
C1235       C  0.07440077  0.49372518  0.08292478    -0.02700
C1236       C  0.06710910  0.53048729  0.08327444    -0.02700
C1237       C  0.06481866  0.54900456  0.11665881     0.07300
C1238       C  0.05798127  0.52910883  0.14820959    -0.02900
Br1239     Br  0.04282077  0.55294639  0.19204114    -0.01400
Br1240     Br  0.05623665  0.46437408  0.19124514    -0.01500
Br1241     Br  0.06432171  0.55518456  0.03777035    -0.01400
Br1242     Br  0.08662936  0.47121600  0.03724827    -0.01400
C1243       C  0.19750159  0.67015828  0.23185378    -0.02500
C1244       C  0.17212513  0.68942866  0.21199387     0.07100
C1245       C  0.15518669  0.71889563  0.22844301    -0.02700
C1246       C  0.15769637  0.72407869  0.26610253    -0.02700
C1247       C  0.17757825  0.70004681  0.28718935     0.07300
C1248       C  0.20091620  0.67602635  0.26937796    -0.02900
Br1249     Br  0.23439457  0.64791670  0.29631854    -0.01400
Br1250     Br  0.22555091  0.63390909  0.20778205    -0.01500
Br1251     Br  0.13100241  0.76187340  0.28934084    -0.01400
Br1252     Br  0.12499524  0.74925014  0.20026931    -0.01400
C1253       C  0.99065821  0.57347491  0.34944038    -0.02500
C1254       C  0.96931866  0.59841191  0.33162627     0.07100
C1255       C  0.98559653  0.62376580  0.30823069    -0.02700
C1256       C  0.02291808  0.63064041  0.31060316    -0.02700
C1257       C  0.04377495  0.60916167  0.33330061     0.07300
C1258       C  0.02824451  0.57804189  0.34879978    -0.02900
Br1259     Br  0.05824006  0.54416305  0.37244543    -0.01400
Br1260     Br  0.96827796  0.53709349  0.37949108    -0.01500
Br1261     Br  0.04312505  0.67378863  0.28889668    -0.01400
Br1262     Br  0.95634882  0.65431217  0.27887844    -0.01400
C1263       C  0.13761122  0.54034779  0.42739120    -0.02500
C1264       C  0.16744335  0.55874102  0.41157127     0.07100
C1265       C  0.19543494  0.53848335  0.39623026    -0.02700
C1266       C  0.19154528  0.50067349  0.39265762    -0.02700
C1267       C  0.15922826  0.48296837  0.40351071     0.07300
C1268       C  0.13302478  0.50271664  0.42252322    -0.02900
Br1269     Br  0.08980237  0.47871846  0.44014749    -0.01400
Br1270     Br  0.10152279  0.56693527  0.45359177    -0.01500
Br1271     Br  0.23037456  0.47285043  0.37298110    -0.01400
Br1272     Br  0.23886500  0.56288055  0.37987139    -0.01400
C1273       C  0.98767800  0.72578328  0.87259564    -0.02500
C1274       C  0.97252046  0.72006046  0.90705769     0.07100
C1275       C  0.99468149  0.72563098  0.93755165    -0.02700
C1276       C  0.03270051  0.72780614  0.93334410    -0.02700
C1277       C  0.04812453  0.72486432  0.89851055     0.07300
C1278       C  0.02531495  0.72953274  0.86849610    -0.02900
Br1279     Br  0.04534045  0.73937451  0.82137203    -0.01400
Br1280     Br  0.95719286  0.72576520  0.83053005    -0.01500
Br1281     Br  0.06305364  0.73370928  0.97512185    -0.01400
Br1282     Br  0.97336290  0.72774345  0.98482655    -0.01400
C1283       C  0.90459029  0.55511812  0.98876428    -0.02500
C1284       C  0.92751602  0.57588217  0.96629546     0.07100
C1285       C  0.95873243  0.56048251  0.95200354    -0.02700
C1286       C  0.96113332  0.52290948  0.95095491    -0.02700
C1287       C  0.93242029  0.50158702  0.96456667     0.07300
C1288       C  0.90762060  0.51742919  0.98850679    -0.02900
Br1289     Br  0.87502374  0.48788779  0.01678639    -0.01400
Br1290     Br  0.86610282  0.57735743  0.01519286    -0.01500
Br1291     Br  0.00048545  0.50025539  0.92647721    -0.01400
Br1292     Br  0.99542634  0.59101389  0.93050902    -0.01400
C1293       C  0.06211722  0.51405405  0.85510763    -0.02500
C1294       C  0.08313672  0.49254579  0.87754880     0.07100
C1295       C  0.09754762  0.50728952  0.90996743    -0.02700
C1296       C  0.09552935  0.54443599  0.91678397    -0.02700
C1297       C  0.07976600  0.56678441  0.89089049     0.07300
C1298       C  0.06029681  0.55119945  0.86194567    -0.02900
Br1299     Br  0.03323865  0.58140717  0.83036157    -0.01400
Br1300     Br  0.03670563  0.49294202  0.81448094    -0.01500
Br1301     Br  0.11969056  0.56460755  0.95884208    -0.01400
Br1302     Br  0.12494530  0.47849608  0.94292779    -0.01400
C1303       C  0.01868261  0.32357472  0.87489480    -0.02500
C1304       C  0.04677235  0.34171632  0.89374616     0.07100
C1305       C  0.03890821  0.35948000  0.92660883    -0.02700
C1306       C  0.00276080  0.36569317  0.93602790    -0.02700
C1307       C  0.97460404  0.35245259  0.91380412     0.07300
C1308       C  0.98246959  0.32876487  0.88509703    -0.02900
Br1309     Br  0.94369187  0.30939893  0.85564539    -0.01400
Br1310     Br  0.02990124  0.29570427  0.83234213    -0.01500
Br1311     Br  0.99194526  0.39944103  0.97438430    -0.01400
Br1312     Br  0.07703875  0.38229104  0.95474595    -0.01400
C1313       C  0.16847198  0.72185690  0.76822029    -0.02500
C1314       C  0.18701963  0.69691230  0.78906146     0.07100
C1315       C  0.21271917  0.67499403  0.77226980    -0.02700
C1316       C  0.21444746  0.67289277  0.73431038    -0.02700
C1317       C  0.19041001  0.69266908  0.71339524     0.07300
C1318       C  0.16991162  0.71956799  0.73026241    -0.02900
Br1319     Br  0.14095521  0.75049391  0.70135567    -0.01400
Br1320     Br  0.13840640  0.75644563  0.79189390    -0.01500
Br1321     Br  0.24756296  0.64115746  0.71085276    -0.01400
Br1322     Br  0.24322189  0.64602299  0.80165665    -0.01400
C1323       C  0.20047220  0.51468079  0.53942251    -0.02500
C1324       C  0.21039003  0.49075881  0.56667923     0.07100
C1325       C  0.22549300  0.50513177  0.59866493    -0.02700
C1326       C  0.22432204  0.54240998  0.60597628    -0.02700
C1327       C  0.20786863  0.56560171  0.58135532     0.07300
C1328       C  0.19894108  0.55208147  0.54669898    -0.02900
Br1329     Br  0.17974466  0.58363152  0.51100249    -0.01400
Br1330     Br  0.18393400  0.49535972  0.49416566    -0.01500
Br1331     Br  0.24284375  0.56137941  0.65092576    -0.01400
Br1332     Br  0.24452405  0.47296857  0.63386551    -0.01400
C1333       C  0.12608432  0.34546116  0.68562352    -0.02500
C1334       C  0.15849640  0.35849458  0.66988886     0.07100
C1335       C  0.18919809  0.36476497  0.69157381    -0.02700
C1336       C  0.18555827  0.36420696  0.72939719    -0.02700
C1337       C  0.15126735  0.35759151  0.74489391     0.07300
C1338       C  0.12235951  0.34538212  0.72321930    -0.02900
Br1339     Br  0.07696601  0.33100975  0.74513408    -0.01400
Br1340     Br  0.08598242  0.33004159  0.65554757    -0.01500
Br1341     Br  0.22620793  0.37687277  0.75973179    -0.01400
Br1342     Br  0.23486768  0.37814392  0.66991972    -0.01400
C1343       C  0.99976921  0.41925899  0.51571818    -0.02500
C1344       C  0.98627518  0.44410809  0.54119079     0.07100
C1345       C  0.00776363  0.47438701  0.55114959    -0.02700
C1346       C  0.04451830  0.47565360  0.54171549    -0.02700
C1347       C  0.05981001  0.44569206  0.52468776     0.07300
C1348       C  0.03695825  0.41982480  0.50773963    -0.02900
Br1349     Br  0.05708975  0.38153599  0.47910455    -0.01400
Br1350     Br  0.96910256  0.38119285  0.49612918    -0.01500
Br1351     Br  0.07546430  0.51565048  0.55615238    -0.01400
Br1352     Br  0.98776932  0.51203697  0.58067184    -0.01400
C1353       C  0.92455175  0.39267564  0.77626683    -0.02500
C1354       C  0.89021726  0.39516435  0.79251385     0.07100
C1355       C  0.85898600  0.38830736  0.77176929    -0.02700
C1356       C  0.86187640  0.38382093  0.73400861    -0.02700
C1357       C  0.89631302  0.38571561  0.71708658     0.07300
C1358       C  0.92757526  0.38686753  0.73888389    -0.02900
Br1359     Br  0.97465506  0.37800035  0.71823114    -0.01400
Br1360     Br  0.96774827  0.39634237  0.80535540    -0.01500
Br1361     Br  0.81820819  0.37593167  0.70640527    -0.01400
Br1362     Br  0.81212604  0.38693615  0.79485673    -0.01400
C1363       C  0.03081410  0.59070246  0.64121570    -0.02500
C1364       C  0.04837650  0.60358297  0.60998671     0.07100
C1365       C  0.02743342  0.61400478  0.58024794    -0.02700
C1366       C  0.99055454  0.62059679  0.58531115    -0.02700
C1367       C  0.97482925  0.61539716  0.61979893     0.07300
C1368       C  0.99393791  0.59683299  0.64628684    -0.02900
Br1369     Br  0.96993996  0.58031962  0.68963796    -0.01400
Br1370     Br  0.05762907  0.56583402  0.67743594    -0.01500
Br1371     Br  0.96361998  0.64029893  0.54571611    -0.01400
Br1372     Br  0.04899007  0.62220941  0.53334137    -0.01400
C1373       C  0.83432136  0.55382298  0.59096461    -0.02500
C1374       C  0.83427056  0.56731096  0.62692450     0.07100
C1375       C  0.83163370  0.54228755  0.65546552    -0.02700
C1376       C  0.83473969  0.50520578  0.64850046    -0.02700
C1377       C  0.84135939  0.49258526  0.61328950     0.07300
C1378       C  0.83817974  0.51646764  0.58432226    -0.02900
Br1379     Br  0.84332026  0.49826162  0.53588354    -0.01400
Br1380     Br  0.83395657  0.58614743  0.55057185    -0.01500
Br1381     Br  0.83392149  0.47155054  0.68781469    -0.01400
Br1382     Br  0.82728561  0.55818552  0.70490462    -0.01400
C1383       C  0.85124622  0.72497441  0.76378462    -0.02500
C1384       C  0.83680307  0.69745344  0.74146224     0.07100
C1385       C  0.81618730  0.66938971  0.75711712    -0.02700
C1386       C  0.81821844  0.66364950  0.79450811    -0.02700
C1387       C  0.83811358  0.68813297  0.81637618     0.07300
C1388       C  0.85050631  0.72103181  0.80154344    -0.02900
Br1389     Br  0.86842500  0.75952570  0.83226975    -0.01400
Br1390     Br  0.87321252  0.76703108  0.74214310    -0.01500
Br1391     Br  0.79478950  0.62196027  0.81568025    -0.01400
Br1392     Br  0.78691568  0.63816853  0.72699429    -0.01400
C1393       C  0.71032667  0.84861895  0.97609734    -0.02500
C1394       C  0.70487933  0.88147506  0.95837114     0.07100
C1395       C  0.70381901  0.91310050  0.97970451    -0.02700
C1396       C  0.69771689  0.91084723  0.01740268    -0.02700
C1397       C  0.69441861  0.87672238  0.03402564     0.07300
C1398       C  0.70524995  0.84619405  0.01373165    -0.02900
Br1399     Br  0.71475779  0.80107466  0.03691363    -0.01400
Br1400     Br  0.72602998  0.80711816  0.94884164    -0.01500
Br1401     Br  0.69430375  0.95456054  0.04555299    -0.01400
Br1402     Br  0.71341942  0.95899829  0.95783105    -0.01400
C1403       C  0.51063072  0.90994482  0.93062138    -0.02500
C1404       C  0.48783164  0.88125849  0.91820767     0.07100
C1405       C  0.50056664  0.84574208  0.91995553    -0.02700
C1406       C  0.53787738  0.84041101  0.92176555    -0.02700
C1407       C  0.56133908  0.87072251  0.92408721     0.07300
C1408       C  0.54736665  0.90372519  0.93578850    -0.02900
Br1409     Br  0.57904478  0.94113451  0.95558184    -0.01400
Br1410     Br  0.49438397  0.95843169  0.93718691    -0.01500
Br1411     Br  0.55629181  0.79231367  0.91845625    -0.01400
Br1412     Br  0.46767578  0.80462492  0.91825736    -0.01400
C1413       C  0.48401823  0.79683573  0.09958464    -0.02500
C1414       C  0.46594482  0.82376821  0.08084836     0.07100
C1415       C  0.48547526  0.84694028  0.05784857    -0.02700
C1416       C  0.52325589  0.84876289  0.05982166    -0.02700
C1417       C  0.54131733  0.82696414  0.08455644     0.07300
C1418       C  0.52197928  0.79829568  0.10145233    -0.02900
Br1419     Br  0.54591358  0.76348359  0.13088191    -0.01400
Br1420     Br  0.45692159  0.76125240  0.12693592    -0.01500
Br1421     Br  0.54977625  0.88256493  0.03015528    -0.01400
Br1422     Br  0.45991929  0.87808256  0.02591939    -0.01400
C1423       C  0.31562565  0.88379193  0.00606587    -0.02500
C1424       C  0.33943797  0.90137323  0.03040608     0.07100
C1425       C  0.36373610  0.92825329  0.01755309    -0.02700
C1426       C  0.36702870  0.93424920  0.98016739    -0.02700
C1427       C  0.34623847  0.91339330  0.95542617     0.07300
C1428       C  0.31922832  0.88953513  0.96871082    -0.02900
Br1429     Br  0.28862744  0.86284779  0.93561596    -0.01400
Br1430     Br  0.27920718  0.85037952  0.02395556    -0.01500
Br1431     Br  0.40433711  0.96690854  0.96314106    -0.01400
Br1432     Br  0.39680864  0.95302410  0.05025029    -0.01400
C1433       C  0.29143343  0.77921430  0.81818985    -0.02500
C1434       C  0.31520566  0.75305151  0.80470218     0.07100
C1435       C  0.34186700  0.76420794  0.77962805    -0.02700
C1436       C  0.35274966  0.80072757  0.77888634    -0.02700
C1437       C  0.33532037  0.82569237  0.80138695     0.07300
C1438       C  0.30168295  0.81593043  0.81661958    -0.02900
Br1439     Br  0.27256625  0.85178509  0.83961900    -0.01400
Br1440     Br  0.24740585  0.76453561  0.84238732    -0.01500
Br1441     Br  0.39412804  0.81615173  0.75087634    -0.01400
Br1442     Br  0.36616646  0.72962227  0.74967838    -0.01400
C1443       C  0.67228865  0.77395359  0.22145541    -0.02500
C1444       C  0.69282646  0.78999554  0.19357277     0.07100
C1445       C  0.71925482  0.76957697  0.17602029    -0.02700
C1446       C  0.71770463  0.73185516  0.17900725    -0.02700
C1447       C  0.68919671  0.71543467  0.19859554     0.07300
C1448       C  0.67032503  0.73619810  0.22398000    -0.02900
Br1449     Br  0.63603289  0.71332310  0.25610831    -0.01400
Br1450     Br  0.64107350  0.80342792  0.25035152    -0.01500
Br1451     Br  0.74874858  0.70215549  0.15006412    -0.01400
Br1452     Br  0.75172209  0.79227372  0.14204092    -0.01400
C1453       C  0.35407376  0.73437294  0.03008272    -0.02500
C1454       C  0.38308016  0.71467158  0.04371716     0.07100
C1455       C  0.41460270  0.71149162  0.02294252    -0.02700
C1456       C  0.41374256  0.71949732  0.98616612    -0.02700
C1457       C  0.38100687  0.72941071  0.97058053     0.07300
C1458       C  0.35289061  0.74155591  0.99292616    -0.02900
Br1459     Br  0.31042680  0.76196552  0.97214385    -0.01400
Br1460     Br  0.31386945  0.74683229  0.06053336    -0.01500
Br1461     Br  0.45519648  0.71173926  0.95581280    -0.01400
Br1462     Br  0.45736657  0.69304143  0.04432482    -0.01400
C1463       C  0.46752176  0.61884066  0.19283571    -0.02500
C1464       C  0.45184657  0.60420745  0.16116063     0.07100
C1465       C  0.47339952  0.58437745  0.13694953    -0.02700
C1466       C  0.51101699  0.58286806  0.14235151    -0.02700
C1467       C  0.52741663  0.60257619  0.17107073     0.07300
C1468       C  0.50525307  0.61851853  0.19752185    -0.02900
Br1469     Br  0.52675361  0.64094586  0.23966568    -0.01400
Br1470     Br  0.43721981  0.64011801  0.22938816    -0.01500
Br1471     Br  0.53993641  0.55693992  0.10767980    -0.01400
Br1472     Br  0.45260776  0.56326547  0.09360892    -0.01400
C1473       C  0.27057758  0.73076592  0.15918237    -0.02500
C1474       C  0.29497954  0.71073660  0.17987761     0.07100
C1475       C  0.31439264  0.72892127  0.20751753    -0.02700
C1476       C  0.31898189  0.76651404  0.20566797    -0.02700
C1477       C  0.30324834  0.78518175  0.17714376     0.07300
C1478       C  0.27528287  0.76839691  0.15732162    -0.02900
Br1479     Br  0.24876818  0.79577427  0.12287095    -0.01400
Br1480     Br  0.23593785  0.70660173  0.12807813    -0.01500
Br1481     Br  0.35204505  0.79190350  0.23753465    -0.01400
Br1482     Br  0.33975510  0.70271093  0.24377045    -0.01400
C1483       C  0.60683607  0.72380111  0.00069082    -0.02500
C1484       C  0.58825314  0.69855512  0.97855860     0.07100
C1485       C  0.56191116  0.67560607  0.99405207    -0.02700
C1486       C  0.56139700  0.67066830  0.03141682    -0.02700
C1487       C  0.58619978  0.69010158  0.05328362     0.07300
C1488       C  0.60561213  0.71969141  0.03843904    -0.02900
Br1489     Br  0.63419356  0.75162714  0.06861773    -0.01400
Br1490     Br  0.63691472  0.76118968  0.97964188    -0.01500
Br1491     Br  0.52944991  0.63452179  0.05190616    -0.01400
Br1492     Br  0.52853115  0.64901583  0.96369765    -0.01400
C1493       C  0.51011039  0.61836171  0.86744145    -0.02500
C1494       C  0.53132783  0.64266494  0.84662539     0.07100
C1495       C  0.51383333  0.66666232  0.82363871    -0.02700
C1496       C  0.47617474  0.67056035  0.82565550    -0.02700
C1497       C  0.45523525  0.64923472  0.84955362     0.07300
C1498       C  0.47214672  0.62182889  0.86912441    -0.02900
Br1499     Br  0.44428845  0.59186707  0.90181420    -0.01400
Br1500     Br  0.53284364  0.58201262  0.89590355    -0.01500
Br1501     Br  0.45369437  0.70640723  0.79642625    -0.01400
Br1502     Br  0.54171054  0.69438671  0.78914924    -0.01400
C1503       C  0.72353562  0.74744339  0.82527451    -0.02500
C1504       C  0.69330120  0.72800589  0.81170562     0.07100
C1505       C  0.67396865  0.74241334  0.78292028    -0.02700
C1506       C  0.67689971  0.77964250  0.77675197    -0.02700
C1507       C  0.70005027  0.80098753  0.79866123     0.07300
C1508       C  0.72800427  0.78409080  0.81690756    -0.02900
Br1509     Br  0.76703049  0.81268006  0.83718304    -0.01400
Br1510     Br  0.75451406  0.72554920  0.85991826    -0.01500
Br1511     Br  0.64333153  0.80282628  0.74555596    -0.01400
Br1512     Br  0.63888139  0.71295331  0.75742106    -0.01400
C1513       C  0.37700849  0.30450526  0.83371827    -0.02500
C1514       C  0.38147485  0.32256255  0.86748238     0.07100
C1515       C  0.38509344  0.30182160  0.89909430    -0.02700
C1516       C  0.38878624  0.26438412  0.89640613    -0.02700
C1517       C  0.38834449  0.24724662  0.86237431     0.07300
C1518       C  0.38092597  0.26691938  0.83128054    -0.02900
Br1519     Br  0.37806068  0.24238001  0.78511706    -0.01400
Br1520     Br  0.36552990  0.32995113  0.79022966    -0.01500
Br1521     Br  0.39306277  0.23621653  0.93976998    -0.01400
Br1522     Br  0.38261807  0.32353311  0.94675316    -0.01400
C1523       C  0.49523838  0.41134933  0.79204412    -0.02500
C1524       C  0.48249522  0.44317496  0.80796095     0.07100
C1525       C  0.50704302  0.47205013  0.81420377    -0.02700
C1526       C  0.54467418  0.46685057  0.81083306    -0.02700
C1527       C  0.55770535  0.43238566  0.80137669     0.07300
C1528       C  0.53266427  0.40581095  0.78886911    -0.02900
Br1529     Br  0.54946328  0.36048165  0.77026093    -0.01400
Br1530     Br  0.46090545  0.37403156  0.77801456    -0.01500
Br1531     Br  0.57762061  0.50572102  0.82418958    -0.01400
Br1532     Br  0.48896225  0.51719990  0.83167686    -0.01400
C1533       C  0.68525439  0.25438329  0.80161859    -0.02500
C1534       C  0.70565864  0.24015397  0.82988638     0.07100
C1535       C  0.72615253  0.26335678  0.85240732    -0.02700
C1536       C  0.72214066  0.30073799  0.85000421    -0.02700
C1537       C  0.69666045  0.31449228  0.82601685     0.07300
C1538       C  0.68024956  0.29174291  0.80005301    -0.02900
Br1539     Br  0.64653503  0.31125011  0.76637299    -0.01400
Br1540     Br  0.65963108  0.22235371  0.76883183    -0.01500
Br1541     Br  0.74827928  0.33301508  0.88218362    -0.01400
Br1542     Br  0.75576630  0.24347390  0.88957760    -0.01400
C1543       C  0.51783466  0.15394290  0.94041720    -0.02500
C1544       C  0.49879854  0.12463716  0.92476320     0.07100
C1545       C  0.51700182  0.09328924  0.91475687    -0.02700
C1546       C  0.55473156  0.09446031  0.91244380    -0.02700
C1547       C  0.57382023  0.12679662  0.92158816     0.07300
C1548       C  0.55560525  0.15516611  0.93876332    -0.02900
Br1549     Br  0.58180964  0.19705931  0.95698622    -0.01400
Br1550     Br  0.49172611  0.19368167  0.96079474    -0.01500
Br1551     Br  0.57832710  0.05302186  0.89182445    -0.01400
Br1552     Br  0.49053556  0.05051975  0.89877551    -0.01400
C1553       C  0.45625286  0.48147203  0.01327992    -0.02500
C1554       C  0.42345534  0.48743827  0.03096985     0.07100
C1555       C  0.39759589  0.50848511  0.01418258    -0.02700
C1556       C  0.39958021  0.51365186  0.97671770    -0.02700
C1557       C  0.42793044  0.49788422  0.95729145     0.07300
C1558       C  0.45875899  0.48743482  0.97603923    -0.02900
Br1559     Br  0.50097458  0.47492481  0.94903773    -0.01400
Br1560     Br  0.49476005  0.46065153  0.03972454    -0.01500
Br1561     Br  0.36031683  0.53521654  0.95156509    -0.01400
Br1562     Br  0.35667635  0.52364069  0.04142645    -0.01400
C1563       C  0.33999213  0.07484917  0.99855452    -0.02500
C1564       C  0.33594152  0.10576485  0.02033010     0.07100
C1565       C  0.32309927  0.13721182  0.00453702    -0.02700
C1566       C  0.32072790  0.13942177  0.96668331    -0.02700
C1567       C  0.33381684  0.11123087  0.94470606     0.07300
C1568       C  0.33886500  0.07745232  0.96058710    -0.02900
Br1569     Br  0.34885077  0.03622438  0.93070382    -0.01400
Br1570     Br  0.35193848  0.03046467  0.02101825    -0.01500
Br1571     Br  0.30380675  0.18257184  0.94452989    -0.01400
Br1572     Br  0.31366433  0.17860337  0.03455816    -0.01400
C1573       C  0.35764050  0.24114022  0.12325619    -0.02500
C1574       C  0.39156372  0.22570997  0.11468412     0.07100
C1575       C  0.41998701  0.24903943  0.10238061    -0.02700
C1576       C  0.41380794  0.28586498  0.09638404    -0.02700
C1577       C  0.37944477  0.30040261  0.10295410     0.07300
C1578       C  0.35163183  0.27797773  0.11677982    -0.02900
Br1579     Br  0.30425475  0.29741444  0.12487195    -0.01400
Br1580     Br  0.31856164  0.21328302  0.14487238    -0.01500
Br1581     Br  0.45367531  0.31680885  0.08085471    -0.01400
Br1582     Br  0.46872302  0.23232000  0.09528297    -0.01400
C1583       C  0.59219504  0.45560360  0.96770168    -0.02500
C1584       C  0.58155804  0.42802386  0.94324365     0.07100
C1585       C  0.55604358  0.40157471  0.95396614    -0.02700
C1586       C  0.54967085  0.39644008  0.99074198    -0.02700
C1587       C  0.56858721  0.41821383  0.01585535     0.07300
C1588       C  0.58489270  0.45094745  0.00451227    -0.02900
Br1589     Br  0.60189318  0.48686556  0.03894373    -0.01400
Br1590     Br  0.62079097  0.49692916  0.95233866    -0.01500
Br1591     Br  0.51880723  0.35731374  0.00696816    -0.01400
Br1592     Br  0.53231738  0.37107651  0.91843887    -0.01400
C1593       C  0.52692350  0.43067915  0.16421803    -0.02500
C1594       C  0.53869474  0.39491898  0.16767602     0.07100
C1595       C  0.51302787  0.36791979  0.17718808    -0.02700
C1596       C  0.47580404  0.37451830  0.17421787    -0.02700
C1597       C  0.46422671  0.40858532  0.16335469     0.07300
C1598       C  0.48961704  0.43730284  0.16186728    -0.02900
Br1599     Br  0.47306028  0.48478721  0.15162196    -0.01400
Br1600     Br  0.56117583  0.47009941  0.15802562    -0.01500
Br1601     Br  0.44077789  0.33595846  0.18076561    -0.01400
Br1602     Br  0.52918883  0.32122144  0.19153465    -0.01400
C1603       C  0.73157780  0.10904099  0.97868720    -0.02500
C1604       C  0.71495189  0.09186955  0.94872543     0.07100
C1605       C  0.69307945  0.06068194  0.95447074    -0.02700
C1606       C  0.68208315  0.05168966  0.98970088    -0.02700
C1607       C  0.69499017  0.07189700  0.01948740     0.07300
C1608       C  0.72174796  0.09893484  0.01408414    -0.02900
Br1609     Br  0.74030297  0.12598039  0.05490648    -0.01400
Br1610     Br  0.76505237  0.14876404  0.97089857    -0.01500
Br1611     Br  0.64414584  0.01589890  0.99681598    -0.01400
Br1612     Br  0.67279005  0.03354026  0.91432517    -0.01400
C1613       C  0.64421741  0.21108220  0.13989297    -0.02500
C1614       C  0.64661413  0.19068318  0.10791445     0.07100
C1615       C  0.65205119  0.20772330  0.07453919    -0.02700
C1616       C  0.65256200  0.24545278  0.07283592    -0.02700
C1617       C  0.64728688  0.26605166  0.10457932     0.07300
C1618       C  0.64438081  0.24884174  0.13828755    -0.02900
Br1619     Br  0.63626101  0.27633247  0.18193120    -0.01400
Br1620     Br  0.63720622  0.18708630  0.18544078    -0.01500
Br1621     Br  0.66003630  0.26866361  0.02687353    -0.01400
Br1622     Br  0.65783432  0.17923804  0.03106155    -0.01400
C1623       C  0.52091222  0.00460954  0.08767963    -0.02500
C1624       C  0.54322009  0.02231399  0.06240997     0.07100
C1625       C  0.52691680  0.03852110  0.03273497    -0.02700
C1626       C  0.49110218  0.04943826  0.03588131    -0.02700
C1627       C  0.47171828  0.04126657  0.06745367     0.07300
C1628       C  0.48465029  0.01472591  0.09073775    -0.02900
Br1629     Br  0.45508131  0.99639668  0.12946246    -0.01400
Br1630     Br  0.54163785  0.97255056  0.12193805    -0.01500
Br1631     Br  0.46996992  0.07926507  0.99989689    -0.01400
Br1632     Br  0.55677429  0.05489879  0.99353522    -0.01400
loop_ 
_geom_bond_atom_site_label_1 
_geom_bond_atom_site_label_2 
_geom_bond_distance 
_geom_bond_site_symmetry_2 
_ccdc_geom_bond_type 
C1            C2   1.511       .  S
C1            C7   1.518       .  S
C1            C5   1.547       .  S
C1          C198   1.505       .  S
C2            H9   1.087       .  S
C2            C3   1.353       .  D
C3            C4   1.567       .  S
C3          C788   1.483       .  S
C4            C8   1.589       .  S
C4            C6   1.566       .  S
C4           H10   1.110       .  S
C5           H11   1.086       .  S
C5            C6   1.370       .  D
C6           C27   1.507       .  S
C7           H12   1.079       .  S
C7            C8   1.373       .  D
C8           C15   1.548   1_545  S
C13          C14   1.533       .  S
C13          C19   1.517       .  S
C13          C17   1.545       .  S
C13         C315   1.515       .  S
C14          H21   1.078       .  S
C14          C15   1.383       .  D
C15          C16   1.562       .  S
C16          C20   1.557       .  S
C16          C18   1.557       .  S
C16          H22   1.111       .  S
C17          H23   1.086       .  S
C17          C18   1.370       .  D
C18          C39   1.485       .  S
C19          H24   1.088       .  S
C19          C20   1.357       .  D
C20         C762   1.477       .  S
C25          C26   1.535       .  S
C25          C31   1.533       .  S
C25          C29   1.539       .  S
C25         C658   1.510       .  S
C26          H33   1.086       .  S
C26          C27   1.368       .  D
C27          C28   1.559       .  S
C28          C32   1.554       .  S
C28          C30   1.545       .  S
C28          H34   1.111       .  S
C29          H35   1.081       .  S
C29          C30   1.364       .  D
C30          C37   1.514       .  S
C31          H36   1.086       .  S
C31          C32   1.366       .  D
C32         C237   1.494       .  S
C37          C38   1.507   1_545  S
C37          C43   1.529   1_545  S
C37          C41   1.539   1_545  S
C38          H45   1.076   1_565  S
C38          C39   1.346       .  D
C39          C40   1.557       .  S
C40          C44   1.558       .  S
C40          C42   1.548       .  S
C40          H46   1.110       .  S
C41          H47   1.083       .  S
C41          C42   1.372       .  D
C42         C736   1.488       .  S
C43          H48   1.086   1_565  S
C43          C44   1.368       .  D
C44         C341   1.476       .  S
C49          C50   1.523       .  S
C49          C55   1.516       .  S
C49          C53   1.530       .  S
C49         C250   1.504       .  S
C50          H57   1.072       .  S
C50          C51   1.374       .  D
C51          C52   1.552       .  S
C51          C85   1.530       .  S
C52          C56   1.556       .  S
C52          C54   1.548       .  S
C52          H58   1.108       .  S
C53          H59   1.082       .  S
C53          C54   1.381       .  D
C54          C78   1.515   1_556  S
C55          H60   1.087       .  S
C55          C56   1.356       .  D
C56         C467   1.465       .  S
C61          C62   1.528       .  S
C61          C67   1.514       .  S
C61          C65   1.542       .  S
C61         C159   1.507       .  S
C62          H69   1.082       .  S
C62          C63   1.373       .  D
C63          C64   1.563       .  S
C63          C80   1.532       .  S
C64          C68   1.573       .  S
C64          C66   1.563       .  S
C64          H70   1.109       .  S
C65          H71   1.086       .  S
C65          C66   1.368       .  D
C66          C87   1.492   1_554  S
C67          H72   1.087       .  S
C67          C68   1.360       .  D
C68         C645   1.495       .  S
C73          C74   1.517       .  S
C73          C79   1.522       .  S
C73          C77   1.527       .  S
C73         C276   1.513       .  S
C74          H81   1.087       .  S
C74          C75   1.362       .  D
C75          C76   1.556       .  S
C75         C606   1.472       .  S
C76          C80   1.575       .  S
C76          C78   1.566       .  S
C76          H82   1.108       .  S
C77          H83   1.079       .  S
C77          C78   1.363       .  D
C79          H84   1.082       .  S
C79          C80   1.381       .  D
C85          C86   1.531       .  S
C85          C91   1.531       .  S
C85          C89   1.530       .  S
C86          H93   1.042       .  S
C86          C87   1.356       .  D
C87          C88   1.551       .  S
C88          C92   1.557       .  S
C88          C90   1.547       .  S
C88          H94   1.111       .  S
C89          H95   1.086       .  S
C89          C90   1.378       .  D
C90         C493   1.477       .  S
C91          H96   1.074       .  S
C91          C92   1.355       .  D
C92         C224   1.478       .  S
C97          C98   1.546       .  S
C97         C103   1.521       .  S
C97         C101   1.549       .  S
C97         C441   1.516       .  S
C98         H105   1.087       .  S
C98          C99   1.367       .  D
C99         C100   1.567       .  S
C99         C128   1.512   1_455  S
C100        C104   1.561       .  S
C100        C102   1.568       .  S
C100        H106   1.110       .  S
C101        H107   1.085       .  S
C101        C102   1.375       .  D
C102        C116   1.523       .  S
C103        H108   1.088       .  S
C103        C104   1.356       .  D
C104        C710   1.490       .  S
C109        C110   1.527       .  S
C109        C115   1.535       .  S
C109        C113   1.556       .  S
C109        C138   1.553   1_455  S
C110        H117   1.086       .  S
C110        C111   1.372       .  D
C111        C112   1.566       .  S
C111        C749   1.483       .  S
C112        C116   1.570       .  S
C112        C114   1.533       .  S
C112        H118   1.110       .  S
C113        H119   1.082       .  S
C113        C114   1.366       .  D
C114        C554   1.498       .  S
C115        H120   1.076       .  S
C115        C116   1.362       .  D
C121        C122   1.532       .  S
C121        C127   1.531       .  S
C121        C125   1.541       .  S
C121        C140   1.539       .  S
C122        H129   1.084       .  S
C122        C123   1.366       .  D
C123        C124   1.571       .  S
C123        C402   1.490       .  S
C124        C128   1.561       .  S
C124        C126   1.536       .  S
C124        H130   1.110       .  S
C125        H131   1.086       .  S
C125        C126   1.377       .  D
C126        C827   1.488       .  S
C127        H132   1.082       .  S
C127        C128   1.358       .  D
C133        C134   1.524       .  S
C133        C139   1.529       .  S
C133        C137   1.542       .  S
C133        C632   1.516       .  S
C134        H141   1.087       .  S
C134        C135   1.363       .  D
C135        C136   1.563       .  S
C135        C853   1.489       .  S
C136        C140   1.560       .  S
C136        C138   1.557       .  S
C136        H142   1.109       .  S
C137        H143   1.082       .  S
C137        C138   1.379       .  D
C139        H144   1.084       .  S
C139        C140   1.368       .  D
In145       O147   2.233       .  S
In145       O148   2.206       .  S
In145       O156   2.181       .  S
In145       O150   2.283       .  S
In145       O152   2.219       .  S
In145       O153   2.168       .  S
In145       O154   2.270       .  S
In145       O157   2.258       .  S
C146        C360   1.476       .  S
C146        O152   1.259       .  A
C146        O154   1.273       .  A
O147        C155   1.264       .  A
O148        C155   1.263       .  A
C149        O156   1.258       .  A
C149        O150   1.275       .  A
C149       C1607   1.475       .  S
C151        O153   1.265       .  A
C151        O157   1.268       .  A
C151       C1624   1.468       .  S
C155       C1614   1.461       .  S
In158       O160   2.238       .  S
In158       O161   2.210       .  S
In158       O169   2.225       .  S
In158       O163   2.268       .  S
In158       O165   2.253       .  S
In158       O166   2.204       .  S
In158       O167   2.240       .  S
In158       O170   2.216       .  S
C159        O165   1.269       .  A
C159        O167   1.257       .  A
O160        C168   1.265       .  A
O161        C168   1.260       .  A
C162        O169   1.259       .  A
C162        O163   1.265       .  A
C162       C1594   1.490       .  S
C164        O166   1.264       .  A
C164        O170   1.259       .  A
C164       C1587   1.462       .  S
C168       C1617   1.470       .  S
In171       O173   2.231       .  S
In171       O174   2.213       .  S
In171       O182   2.203       .  S
In171       O176   2.287       .  S
In171       O178   2.252       .  S
In171       O179   2.234       .  S
In171       O180   2.273       .  S
In171       O183   2.244       .  S
C172        C396   1.495       .  S
C172        O178   1.272       .  A
C172        O180   1.263       .  A
O173        C181   1.262       .  A
O174        C181   1.270       .  A
C175        O182   1.260       .  A
C175        O176   1.273       .  A
C175       C1564   1.480       .  S
C177        O179   1.266       .  A
C177        O183   1.266       .  A
C177       C1574   1.510       .  S
C181       C1627   1.467       .  S
In184       O186   2.232       .  S
In184       O187   2.194       .  S
In184       O195   2.189       .  S
In184       O189   2.287       .  S
In184       O191   2.326       .  S
In184       O192   2.229       .  S
In184       O193   2.217       .  S
In184       O196   2.246       .  S
C185        C546   1.508       .  S
C185        O191   1.276       .  A
C185        O193   1.264       .  A
O186        C194   1.268       .  A
O187        C194   1.268       .  A
C188        O195   1.261       .  A
C188        O189   1.278       .  A
C188       C1597   1.480       .  S
C190        O192   1.266       .  A
C190        O196   1.269       .  A
C190       C1577   1.490       .  S
C194       C1554   1.466       .  S
In197       O199   2.206       .  S
In197       O200   2.220       .  S
In197       O208   2.226       .  S
In197       O202   2.256       .  S
In197       O204   2.249       .  S
In197       O205   2.199       .  S
In197       O206   2.243       .  S
In197       O209   2.266       .  S
C198        O204   1.269       .  A
C198        O206   1.255       .  A
O199        C207   1.256       .  A
O200        C207   1.265       .  A
C201        O208   1.261       .  A
C201        O202   1.266       .  A
C201       C1604   1.485       .  S
C203        O205   1.258       .  A
C203        O209   1.263       .  A
C203       C1534   1.465       .  S
C207       C1547   1.465       .  S
In210       O212   2.237       .  S
In210       O213   2.214       .  S
In210       O221   2.200       .  S
In210       O215   2.300       .  S
In210       O217   2.267       .  S
In210       O218   2.186       .  S
In210       O219   2.237       .  S
In210       O222   2.248       .  S
C211        C524   1.481       .  S
C211        O217   1.274       .  A
C211        O219   1.259       .  A
O212        C220   1.264       .  A
O213        C220   1.264       .  A
C214        O221   1.257       .  A
C214        O215   1.273       .  A
C214       C1524   1.484       .  S
C216        O218   1.266       .  A
C216        O222   1.266       .  A
C216       C1557   1.466       .  S
C220       C1514   1.489       .  S
In223       O225   2.213       .  S
In223       O226   2.198       .  S
In223       O234   2.220       .  S
In223       O228   2.272       .  S
In223       O230   2.225       .  S
In223       O231   2.189       .  S
In223       O232   2.259       .  S
In223       O235   2.253       .  S
C224        O230   1.272       .  A
C224        O232   1.258       .  A
O225        C233   1.260       .  A
O226        C233   1.267       .  A
C227        O234   1.262       .  A
C227        O228   1.271       .  A
C227       C1527   1.495       .  S
C229        O231   1.262       .  A
C229        O235   1.267       .  A
C229       C1537   1.464       .  S
C233       C1584   1.461       .  S
In236       O238   2.238       .  S
In236       O239   2.203       .  S
In236       O247   2.200       .  S
In236       O241   2.306       .  S
In236       O243   2.279       .  S
In236       O244   2.193       .  S
In236       O245   2.285       .  S
In236       O248   2.220       .  S
C237        O243   1.263       .  A
C237        O245   1.255       .  A
O238        C246   1.267       .  A
O239        C246   1.262       .  A
C240        O247   1.251       .  A
C240        O241   1.270       .  A
C240       C1567   1.489       .  S
C242        O244   1.262       .  A
C242        O248   1.262       .  A
C242       C1544   1.457       .  S
C246       C1517   1.467       .  S
In249       O251   2.266       .  S
In249       O252   2.205       .  S
In249       O260   2.217       .  S
In249       O254   2.272       .  S
In249       O256   2.261       .  S
In249       O257   2.247       .  S
In249       O258   2.217       .  S
In249       O261   2.201       .  S
C250        O256   1.269       .  A
C250        O258   1.257       .  A
O251        C259   1.263       .  A
O252        C259   1.260       .  A
C253        O260   1.261       .  A
C253        O254   1.268       .  A
C253       C1494   1.490       .  S
C255        O257   1.265       .  A
C255        O261   1.263       .  A
C255       C1484   1.474       .  S
C259       C1504   1.469       .  S
In262       O264   2.257       .  S
In262       O265   2.206       .  S
In262       O273   2.264       .  S
In262       O267   2.234       .  S
In262       O269   2.256       .  S
In262       O270   2.250       .  S
In262       O271   2.221       .  S
In262       O274   2.239       .  S
C263        C512   1.467       .  S
C263        O269   1.261       .  A
C263        O271   1.263       .  A
O264        C272   1.266       .  A
O265        C272   1.257       .  A
C266        O273   1.261       .  A
C266        O267   1.257       .  A
C266       C1464   1.482       .  S
C268        O270   1.253       .  A
C268        O274   1.262       .  A
C268       C1454   1.471       .  S
C272       C1474   1.485       .  S
In275       O277   2.210       .  S
In275       O278   2.261       .  S
In275       O286   2.238       .  S
In275       O280   2.259       .  S
In275       O282   2.300       .  S
In275       O283   2.189       .  S
In275       O284   2.194       .  S
In275       O287   2.277       .  S
C276        O282   1.265       .  A
C276        O284   1.254       .  A
O277        C285   1.261       .  A
O278        C285   1.263       .  A
C279        O286   1.258       .  A
C279        O280   1.262       .  A
C279       C1467   1.486       .  S
C281        O283   1.257       .  A
C281        O287   1.266       .  A
C281       C1447   1.471       .  S
C285       C1487   1.478       .  S
In288       O290   2.203       .  S
In288       O291   2.256       .  S
In288       O299   2.233       .  S
In288       O293   2.273       .  S
In288       O295   2.268       .  S
In288       O296   2.236       .  S
In288       O297   2.244       .  S
In288       O300   2.261       .  S
C289        C536   1.476       .  S
C289        O295   1.263       .  A
C289        O297   1.254       .  A
O290        C298   1.260       .  A
O291        C298   1.260       .  A
C292        O299   1.260       .  A
C292        O293   1.265       .  A
C292       C1497   1.488       .  S
C294        O296   1.256       .  A
C294        O300   1.260       .  A
C294       C1434   1.488       .  S
C298       C1457   1.465       .  S
In301       O303   2.277       .  S
In301       O304   2.192       .  S
In301       O312   2.228       .  S
In301       O306   2.253       .  S
In301       O308   2.253       .  S
In301       O309   2.250       .  S
In301       O310   2.233       .  S
In301       O313   2.208       .  S
C302        C365   1.503       .  S
C302        O308   1.265       .  A
C302        O310   1.257       .  A
O303        C311   1.263       .  A
O304        C311   1.256       .  A
C305        O312   1.260       .  A
C305        O306   1.263       .  A
C305       C1424   1.481       .  S
C307        O309   1.261       .  A
C307        O313   1.260       .  A
C307       C1414   1.467       .  S
C311       C1477   1.467       .  S
In314       O316   2.259       .  S
In314       O317   2.185       .  S
In314       O325   2.206       .  S
In314       O319   2.283       .  S
In314       O321   2.264       .  S
In314       O322   2.227       .  S
In314       O323   2.233       .  S
In314       O326   2.183       .  S
C315        O321   1.273       .  A
C315        O323   1.259       .  A
O316        C324   1.267       .  A
O317        C324   1.262       .  A
C318        O325   1.260       .  A
C318        O319   1.272       .  A
C318       C1394   1.501       .  S
C320        O322   1.264       .  A
C320        O326   1.262       .  A
C320       C1407   1.472       .  S
C324       C1507   1.469       .  S
In327       O329   2.233       .  S
In327       O330   2.225       .  S
In327       O338   2.228       .  S
In327       O332   2.282       .  S
In327       O334   2.302       .  S
In327       O335   2.195       .  S
In327       O336   2.209       .  S
In327       O339   2.290       .  S
C328        C377   1.511       .  S
C328        O334   1.268       .  A
C328        O336   1.256       .  A
O329        C337   1.263       .  A
O330        C337   1.257       .  A
C331        O338   1.257       .  A
C331        O332   1.267       .  A
C331       C1397   1.505       .  S
C333        O335   1.256       .  A
C333        O339   1.265       .  A
C333       C1444   1.471       .  S
C337       C1417   1.479       .  S
In340       O342   2.227       .  S
In340       O343   2.209       .  S
In340       O351   2.220       .  S
In340       O345   2.270       .  S
In340       O347   2.257       .  S
In340       O348   2.204       .  S
In340       O349   2.231       .  S
In340       O352   2.266       .  S
C341        O347   1.270       .  A
C341        O349   1.256       .  A
O342        C350   1.259       .  A
O343        C350   1.263       .  A
C344        O351   1.260       .  A
C344        O345   1.270       .  A
C344       C1427   1.485       .  S
C346        O348   1.261       .  A
C346        O352   1.266       .  A
C346       C1437   1.475       .  S
C350       C1404   1.479       .  S
C353        C354   1.546       .  S
C353        C359   1.539       .  S
C353        C357   1.556       .  S
C353        C775   1.525       .  S
C354        H361   1.086       .  S
C354        C355   1.373       .  D
C355        C356   1.553       .  S
C355        C391   1.499       .  S
C356        C360   1.536       .  S
C356        C358   1.538       .  S
C356        H362   1.112       .  S
C357        H363   1.086       .  S
C357        C358   1.372       .  D
C358        C384   1.499   1_545  S
C359        H364   1.087       .  S
C359        C360   1.360       .  D
C365        C366   1.529       .  S
C365        C371   1.520       .  S
C365        C369   1.535       .  S
C366        H373   1.080       .  S
C366        C367   1.368       .  D
C367        C368   1.566       .  S
C367        C389   1.544   1_565  S
C368        C372   1.557       .  S
C368        C370   1.551       .  S
C368        H374   1.107       .  S
C369        H375   1.083       .  S
C369        C370   1.376       .  D
C370        C382   1.509       .  S
C371        H376   1.086       .  S
C371        C372   1.358       .  D
C372        C723   1.480       .  S
C377        C378   1.526       .  S
C377        C383   1.536       .  S
C377        C381   1.532       .  S
C378        H385   1.087       .  S
C378        C379   1.358       .  D
C379        C380   1.546       .  S
C379        C801   1.474       .  S
C380        C384   1.556       .  S
C380        C382   1.556       .  S
C380        H386   1.107       .  S
C381        H387   1.083       .  S
C381        C382   1.374       .  D
C383        H388   1.086       .  S
C383        C384   1.372       .  D
C389        C390   1.527       .  S
C389        C395   1.544       .  S
C389        C393   1.528       .  S
C390        H397   1.076   1_545  S
C390        C391   1.357       .  D
C391        C392   1.552       .  S
C392        C396   1.560       .  S
C392        C394   1.548       .  S
C392        H398   1.110       .  S
C393        H399   1.086       .  S
C393        C394   1.375       .  D
C394        C697   1.480       .  S
C395        H400   1.081       .  S
C395        C396   1.367       .  D
In401       O403   2.269       .  S
In401       O404   2.216       .  S
In401       O412   2.215       .  S
In401       O406   2.281       .  S
In401       O408   2.256       .  S
In401       O409   2.221       .  S
In401       O410   2.262       .  S
In401       O413   2.203       .  S
C402        O408   1.272       .  A
C402        O410   1.258       .  A
O403        C411   1.266       .  A
O404        C411   1.262       .  A
C405        O412   1.262       .  A
C405        O406   1.273       .  A
C405       C1374   1.497       .  S
C407        O409   1.269       .  A
C407        O413   1.259       .  A
C407       C1367   1.471       .  S
C411       C1384   1.476       .  S
In414       O416   2.241       .  S
In414       O417   2.210       .  S
In414       O425   2.191       .  S
In414       O419   2.294       .  S
In414       O421   2.283       .  S
In414       O422   2.213       .  S
In414       O423   2.207       .  S
In414       O426   2.243       .  S
C415        C865   1.522       .  S
C415        O421   1.276       .  A
C415        O423   1.263       .  A
O416        C424   1.266       .  A
O417        C424   1.266       .  A
C418        O425   1.259       .  A
C418        O419   1.275       .  A
C418       C1377   1.483       .  S
C420        O422   1.266       .  A
C420        O426   1.266       .  A
C420       C1357   1.489       .  S
C424       C1344   1.474       .  S
In427       O429   2.253       .  S
In427       O430   2.177       .  S
In427       O438   2.191       .  S
In427       O432   2.287       .  S
In427       O434   2.305       .  S
In427       O435   2.187       .  S
In427       O436   2.171       .  S
In427       O439   2.246       .  S
C428        C879   1.488       .  S
C428        O434   1.280       .  A
C428        O436   1.260       .  A
O429        C437   1.270       .  A
O430        C437   1.264       .  A
C431        O438   1.259       .  A
C431        O432   1.278       .  A
C431       C1324   1.487       .  S
C433        O435   1.266       .  A
C433        O439   1.269       .  A
C433       C1347   1.469       .  S
C437       C1334   1.469       .  S
In440       O442   2.230       .  S
In440       O443   2.218       .  S
In440       O451   2.221       .  S
In440       O445   2.287       .  S
In440       O447   2.298       .  S
In440       O448   2.218       .  S
In440       O449   2.226       .  S
In440       O452   2.288       .  S
C441        O447   1.269       .  A
C441        O449   1.258       .  A
O442        C450   1.259       .  A
O443        C450   1.262       .  A
C444        O451   1.258       .  A
C444        O445   1.269       .  A
C444       C1327   1.491       .  S
C446        O448   1.259       .  A
C446        O452   1.267       .  A
C446       C1317   1.479       .  S
C450       C1364   1.475       .  S
In453       O455   2.248       .  S
In453       O456   2.208       .  S
In453       O464   2.216       .  S
In453       O458   2.253       .  S
In453       O460   2.240       .  S
In453       O461   2.238       .  S
In453       O462   2.244       .  S
In453       O465   2.214       .  S
C454        C517   1.506       .  S
C454        O460   1.268       .  A
C454        O462   1.258       .  A
O455        C463   1.261       .  A
O456        C463   1.261       .  A
C457        O464   1.261       .  A
C457        O458   1.266       .  A
C457       C1304   1.476       .  S
C459        O461   1.267       .  A
C459        O465   1.258       .  A
C459       C1294   1.473       .  S
C463       C1337   1.465       .  S
In466       O468   2.238       .  S
In466       O469   2.218       .  S
In466       O477   2.191       .  S
In466       O471   2.272       .  S
In466       O473   2.238       .  S
In466       O474   2.194       .  S
In466       O475   2.204       .  S
In466       O478   2.219       .  S
C467        O473   1.277       .  A
C467        O475   1.263       .  A
O468        C476   1.268       .  A
O469        C476   1.269       .  A
C470        O477   1.264       .  A
C470        O471   1.276       .  A
C470       C1274   1.487       .  S
C472        O474   1.271       .  A
C472        O478   1.268       .  A
C472       C1284   1.468       .  S
C476       C1387   1.479       .  S
In479       O481   2.231       .  S
In479       O482   2.203       .  S
In479       O490   2.203       .  S
In479       O484   2.290       .  S
In479       O486   2.313       .  S
In479       O487   2.206       .  S
In479       O488   2.205       .  S
In479       O491   2.281       .  S
C480        C534   1.490       .  S
C480        O486   1.274       .  A
C480        O488   1.255       .  A
O481        C489   1.264       .  A
O482        C489   1.265       .  A
C483        O490   1.259       .  A
C483        O484   1.272       .  A
C483       C1277   1.498       .  S
C485        O487   1.259       .  A
C485        O491   1.267       .  A
C485       C1314   1.476       .  S
C489       C1297   1.469       .  S
In492       O494   2.245       .  S
In492       O495   2.196       .  S
In492       O503   2.165       .  S
In492       O497   2.271       .  S
In492       O499   2.271       .  S
In492       O500   2.219       .  S
In492       O501   2.191       .  S
In492       O504   2.244       .  S
C493        O499   1.274       .  A
C493        O501   1.262       .  A
O494        C502   1.267       .  A
O495        C502   1.268       .  A
C496        O503   1.259       .  A
C496        O497   1.274       .  A
C496       C1307   1.467       .  S
C498        O500   1.265       .  A
C498        O504   1.266       .  A
C498       C1354   1.476       .  S
C502       C1287   1.474       .  S
C505        C506   1.550       .  S
C505        C511   1.517       .  S
C505        C509   1.554       .  S
C505        C567   1.509       .  S
C506        H513   1.086       .  S
C506        C507   1.372       .  D
C507        C508   1.558       .  S
C507        C531   1.513   1_554  S
C508        C512   1.539       .  S
C508        C510   1.557       .  S
C508        H514   1.096       .  S
C509        H515   1.086       .  S
C509        C510   1.373       .  D
C510        C543   1.509       .  S
C511        H516   1.089       .  S
C511        C512   1.353       .  D
C517        C518   1.533       .  S
C517        C523   1.526       .  S
C517        C521   1.550       .  S
C518        H525   1.084       .  S
C518        C519   1.357       .  D
C519        C520   1.565       .  S
C519        C541   1.538       .  S
C520        C524   1.550       .  S
C520        C522   1.556       .  S
C520        H526   1.107       .  S
C521        H527   1.082       .  S
C521        C522   1.382       .  D
C522        C529   1.557       .  S
C523        H528   1.086       .  S
C523        C524   1.361       .  D
C529        C530   1.529       .  S
C529        C535   1.530       .  S
C529        C533   1.553       .  S
C530        H537   1.070       .  S
C530        C531   1.352       .  D
C531        C532   1.556       .  S
C532        C536   1.566       .  S
C532        C534   1.526       .  S
C532        H538   1.110       .  S
C533        H539   1.083       .  S
C533        C534   1.371       .  D
C535        H540   1.086       .  S
C535        C536   1.377       .  D
C541        C542   1.519   1_556  S
C541        C547   1.542   1_556  S
C541        C545   1.533   1_556  S
C542        H549   1.082   1_554  S
C542        C543   1.350       .  D
C543        C544   1.568       .  S
C544        C548   1.571       .  S
C544        C546   1.555       .  S
C544        H550   1.110       .  S
C545        H551   1.087   1_554  S
C545        C546   1.370       .  D
C547        H552   1.084       .  S
C547        C548   1.377       .  D
C548        C580   1.491       .  S
In553       O555   2.277       .  S
In553       O556   2.212       .  S
In553       O564   2.241       .  S
In553       O558   2.288       .  S
In553       O560   2.322       .  S
In553       O561   2.244       .  S
In553       O562   2.228       .  S
In553       O565   2.219       .  S
C554        O560   1.269       .  A
C554        O562   1.255       .  A
O555        C563   1.269       .  A
O556        C563   1.259       .  A
C557        O564   1.254       .  A
C557        O558   1.264       .  A
C557       C1264   1.488       .  S
C559        O561   1.256       .  A
C559        O565   1.259       .  A
C559       C1257   1.464       .  S
C563       C1247   1.490       .  S
In566       O568   2.275       .  S
In566       O569   2.226       .  S
In566       O577   2.211       .  S
In566       O571   2.263       .  S
In566       O573   2.223       .  S
In566       O574   2.236       .  S
In566       O575   2.288       .  S
In566       O578   2.193       .  S
C567        O573   1.257       .  A
C567        O575   1.268       .  A
O568        C576   1.266       .  A
O569        C576   1.259       .  A
C570        O577   1.261       .  A
C570        O571   1.268       .  A
C570       C1224   1.480       .  S
C572        O574   1.264       .  A
C572        O578   1.256       .  A
C572       C1237   1.476       .  S
C576       C1244   1.483       .  S
In579       O581   2.200       .  S
In579       O582   2.234       .  S
In579       O590   2.215       .  S
In579       O584   2.290       .  S
In579       O586   2.279       .  S
In579       O587   2.196       .  S
In579       O588   2.259       .  S
In579       O591   2.268       .  S
C580        O586   1.269       .  A
C580        O588   1.257       .  A
O581        C589   1.257       .  A
O582        C589   1.264       .  A
C583        O590   1.260       .  A
C583        O584   1.271       .  A
C583       C1207   1.501       .  S
C585        O587   1.260       .  A
C585        O591   1.267       .  A
C585       C1214   1.473       .  S
C589       C1234   1.470       .  S
In592       O594   2.234       .  S
In592       O595   2.247       .  S
In592       O603   2.256       .  S
In592       O597   2.291       .  S
In592       O599   2.278       .  S
In592       O600   2.215       .  S
In592       O601   2.254       .  S
In592       O604   2.279       .  S
C593        C891   1.485       .  S
C593        O599   1.259       .  A
C593        O601   1.265       .  A
O594        C602   1.261       .  A
O595        C602   1.253       .  A
C596        O603   1.256       .  A
C596        O597   1.262       .  A
C596       C1267   1.490       .  S
C598        O600   1.258       .  A
C598        O604   1.268       .  A
C598       C1217   1.491       .  S
C602       C1194   1.458       .  S
In605       O607   2.212       .  S
In605       O608   2.227       .  S
In605       O616   2.216       .  S
In605       O610   2.266       .  S
In605       O612   2.262       .  S
In605       O613   2.208       .  S
In605       O614   2.247       .  S
In605       O617   2.260       .  S
C606        O612   1.257       .  A
C606        O614   1.264       .  A
O607        C615   1.263       .  A
O608        C615   1.261       .  A
C609        O616   1.258       .  A
C609        O610   1.266       .  A
C609       C1227   1.491       .  S
C611        O613   1.260       .  A
C611        O617   1.264       .  A
C611       C1177   1.476       .  S
C615       C1184   1.476       .  S
In618       O620   2.210       .  S
In618       O621   2.282       .  S
In618       O629   2.227       .  S
In618       O623   2.290       .  S
In618       O625   2.301       .  S
In618       O626   2.225       .  S
In618       O627   2.238       .  S
In618       O630   2.210       .  S
C619        C906   1.487       .  S
C619        O625   1.268       .  A
C619        O627   1.252       .  A
O620        C628   1.258       .  A
O621        C628   1.266       .  A
C622        O629   1.256       .  A
C622        O623   1.267       .  A
C622       C1164   1.492       .  S
C624        O626   1.257       .  A
C624        O630   1.261       .  A
C624       C1197   1.470       .  S
C628       C1154   1.486       .  S
In631       O633   2.209       .  S
In631       O634   2.230       .  S
In631       O642   2.224       .  S
In631       O636   2.284       .  S
In631       O638   2.281       .  S
In631       O639   2.193       .  S
In631       O640   2.241       .  S
In631       O643   2.273       .  S
C632        O638   1.268       .  A
C632        O640   1.255       .  A
O633        C641   1.262       .  A
O634        C641   1.258       .  A
C635        O642   1.256       .  A
C635        O636   1.264       .  A
C635       C1167   1.488       .  S
C637        O639   1.256       .  A
C637        O643   1.266       .  A
C637       C1174   1.471       .  S
C641       C1254   1.458       .  S
In644       O646   2.261       .  S
In644       O647   2.218       .  S
In644       O655   2.227       .  S
In644       O649   2.285       .  S
In644       O651   2.302       .  S
In644       O652   2.204       .  S
In644       O653   2.262       .  S
In644       O656   2.228       .  S
C645        O651   1.258       .  A
C645        O653   1.266       .  A
O646        C654   1.264       .  A
O647        C654   1.262       .  A
C648        O655   1.256       .  A
C648        O649   1.268       .  A
C648       C1204   1.506       .  S
C650        O652   1.263       .  A
C650        O656   1.263       .  A
C650       C1187   1.473       .  S
C654       C1157   1.481       .  S
In657       O659   2.271       .  S
In657       O660   2.197       .  S
In657       O668   2.274       .  S
In657       O662   2.217       .  S
In657       O664   2.293       .  S
In657       O665   2.231       .  S
In657       O666   2.196       .  S
In657       O669   2.215       .  S
C658        O664   1.267       .  A
C658        O666   1.254       .  A
O659        C667   1.266       .  A
O660        C667   1.256       .  A
C661        O668   1.262       .  A
C661        O662   1.255       .  A
C661       C1144   1.482       .  S
C663        O665   1.260       .  A
C663        O669   1.263       .  A
C663       C1134   1.473       .  S
C667       C1124   1.476       .  S
In670       O672   2.279       .  S
In670       O673   2.198       .  S
In670       O681   2.224       .  S
In670       O675   2.288       .  S
In670       O677   2.270       .  S
In670       O678   2.220       .  S
In670       O679   2.245       .  S
In670       O682   2.189       .  S
C671        C884   1.485       .  S
C671        O677   1.270       .  A
C671        O679   1.255       .  A
O672        C680   1.268       .  A
O673        C680   1.257       .  A
C674        O681   1.259       .  A
C674        O675   1.269       .  A
C674       C1104   1.484       .  S
C676        O678   1.263       .  A
C676        O682   1.254       .  A
C676       C1117   1.465       .  S
C680       C1127   1.473       .  S
In683       O685   2.201       .  S
In683       O686   2.208       .  S
In683       O694   2.211       .  S
In683       O688   2.280       .  S
In683       O690   2.290       .  S
In683       O691   2.168       .  S
In683       O692   2.227       .  S
In683       O695   2.271       .  S
C684        C889   1.519       .  S
C684        O690   1.273       .  A
C684        O692   1.258       .  A
O685        C693   1.258       .  A
O686        C693   1.263       .  A
C687        O694   1.258       .  A
C687        O688   1.272       .  A
C687       C1084   1.484       .  S
C689        O691   1.259       .  A
C689        O695   1.271       .  A
C689       C1094   1.466       .  S
C693       C1114   1.465       .  S
In696       O698   2.202       .  S
In696       O699   2.239       .  S
In696       O707   2.206       .  S
In696       O701   2.264       .  S
In696       O703   2.280       .  S
In696       O704   2.209       .  S
In696       O705   2.207       .  S
In696       O708   2.249       .  S
C697        O703   1.270       .  A
C697        O705   1.259       .  A
O698        C706   1.257       .  A
O699        C706   1.267       .  A
C700        O707   1.259       .  A
C700        O701   1.268       .  A
C700       C1147   1.474       .  S
C702        O704   1.262       .  A
C702        O708   1.265       .  A
C702       C1097   1.466       .  S
C706       C1074   1.480       .  S
In709       O711   2.213       .  S
In709       O712   2.251       .  S
In709       O720   2.239       .  S
In709       O714   2.296       .  S
In709       O716   2.289       .  S
In709       O717   2.228       .  S
In709       O718   2.273       .  S
In709       O721   2.276       .  S
C710        O716   1.255       .  A
C710        O718   1.265       .  A
O711        C719   1.260       .  A
O712        C719   1.259       .  A
C713        O720   1.255       .  A
C713        O714   1.265       .  A
C713       C1107   1.492       .  S
C715        O717   1.261       .  A
C715        O721   1.266       .  A
C715       C1057   1.487       .  S
C719       C1064   1.481       .  S
In722       O724   2.242       .  S
In722       O725   2.208       .  S
In722       O733   2.179       .  S
In722       O727   2.304       .  S
In722       O729   2.228       .  S
In722       O730   2.188       .  S
In722       O731   2.270       .  S
In722       O734   2.205       .  S
C723        O729   1.259       .  A
C723        O731   1.278       .  A
O724        C732   1.268       .  A
O725        C732   1.266       .  A
C726        O733   1.262       .  A
C726        O727   1.278       .  A
C726       C1047   1.505       .  S
C728        O730   1.269       .  A
C728        O734   1.268       .  A
C728       C1077   1.470       .  S
C732       C1037   1.471       .  S
In735       O737   2.222       .  S
In735       O738   2.242       .  S
In735       O746   2.251       .  S
In735       O740   2.276       .  S
In735       O742   2.324       .  S
In735       O743   2.199       .  S
In735       O744   2.196       .  S
In735       O747   2.266       .  S
C736        O742   1.270       .  A
C736        O744   1.254       .  A
O737        C745   1.260       .  A
O738        C745   1.260       .  A
C739        O746   1.256       .  A
C739        O740   1.260       .  A
C739       C1044   1.489       .  S
C741        O743   1.262       .  A
C741        O747   1.269       .  A
C741       C1054   1.472       .  S
C745       C1137   1.481       .  S
In748       O750   2.286       .  S
In748       O751   2.201       .  S
In748       O759   2.225       .  S
In748       O753   2.274       .  S
In748       O755   2.269       .  S
In748       O756   2.243       .  S
In748       O757   2.250       .  S
In748       O760   2.225       .  S
C749        O755   1.267       .  A
C749        O757   1.256       .  A
O750        C758   1.264       .  A
O751        C758   1.255       .  A
C752        O759   1.259       .  A
C752        O753   1.267       .  A
C752       C1087   1.487       .  S
C754        O756   1.258       .  A
C754        O760   1.259       .  A
C754       C1067   1.475       .  S
C758       C1034   1.477       .  S
In761       O763   2.261       .  S
In761       O764   2.226       .  S
In761       O772   2.233       .  S
In761       O766   2.265       .  S
In761       O768   2.275       .  S
In761       O769   2.222       .  S
In761       O770   2.254       .  S
In761       O773   2.209       .  S
C762        O768   1.252       .  A
C762        O770   1.264       .  A
O763        C771   1.262       .  A
O764        C771   1.260       .  A
C765        O772   1.259       .  A
C765        O766   1.264       .  A
C765       C1014   1.484       .  S
C767        O769   1.265       .  A
C767        O773   1.257       .  A
C767       C1004   1.461       .  S
C771       C1024   1.474       .  S
In774       O776   2.252       .  S
In774       O777   2.190       .  S
In774       O785   2.199       .  S
In774       O779   2.298       .  S
In774       O781   2.301       .  S
In774       O782   2.200       .  S
In774       O783   2.228       .  S
In774       O786   2.220       .  S
C775        O781   1.275       .  A
C775        O783   1.260       .  A
O776        C784   1.268       .  A
O777        C784   1.262       .  A
C778        O785   1.258       .  A
C778        O779   1.277       .  A
C778        C984   1.506       .  S
C780        O782   1.262       .  A
C780        O786   1.266       .  A
C780        C977   1.479       .  S
C784        C994   1.469       .  S
In787       O789   2.187       .  S
In787       O790   2.180       .  S
In787       O798   2.191       .  S
In787       O792   2.275       .  S
In787       O794   2.244       .  S
In787       O795   2.193       .  S
In787       O796   2.268       .  S
In787       O799   2.252       .  S
C788        O794   1.260       .  A
C788        O796   1.277       .  A
O789        C797   1.267       .  A
O790        C797   1.272       .  A
C791        O798   1.263       .  A
C791        O792   1.278       .  A
C791        C987   1.501       .  S
C793        O795   1.265       .  A
C793        O799   1.268       .  A
C793        C964   1.466       .  S
C797       C1007   1.460       .  S
In800       O802   2.202       .  S
In800       O803   2.243       .  S
In800       O811   2.263       .  S
In800       O805   2.237       .  S
In800       O807   2.260       .  S
In800       O808   2.236       .  S
In800       O809   2.257       .  S
In800       O812   2.251       .  S
C801        O807   1.251       .  A
C801        O809   1.263       .  A
O802        C810   1.260       .  A
O803        C810   1.259       .  A
C804        O811   1.259       .  A
C804        O805   1.255       .  A
C804       C1017   1.494       .  S
C806        O808   1.261       .  A
C806        O812   1.262       .  A
C806        C957   1.475       .  S
C810        C974   1.460       .  S
In813       O815   2.264       .  S
In813       O816   2.214       .  S
In813       O824   2.223       .  S
In813       O818   2.266       .  S
In813       O820   2.240       .  S
In813       O821   2.247       .  S
In813       O822   2.277       .  S
In813       O825   2.198       .  S
C814        C903   1.486       .  S
C814        O820   1.266       .  A
C814        O822   1.259       .  A
O815        C823   1.264       .  A
O816        C823   1.260       .  A
C817        O824   1.259       .  A
C817        O818   1.266       .  A
C817        C947   1.492       .  S
C819        O821   1.263       .  A
C819        O825   1.258       .  A
C819        C934   1.476       .  S
C823        C997   1.475       .  S
In826       O828   2.270       .  S
In826       O829   2.188       .  S
In826       O837   2.231       .  S
In826       O831   2.276       .  S
In826       O833   2.312       .  S
In826       O834   2.191       .  S
In826       O835   2.215       .  S
In826       O838   2.229       .  S
C827        O833   1.272       .  A
C827        O835   1.252       .  A
O828        C836   1.269       .  A
O829        C836   1.260       .  A
C830        O837   1.257       .  A
C830        O831   1.264       .  A
C830        C914   1.501       .  S
C832        O834   1.262       .  A
C832        O838   1.262       .  A
C832        C924   1.469       .  S
C836       C1027   1.472       .  S
In839       O841   2.226       .  S
In839       O842   2.215       .  S
In839       O850   2.223       .  S
In839       O844   2.310       .  S
In839       O846   2.311       .  S
In839       O847   2.185       .  S
In839       O848   2.257       .  S
In839       O851   2.259       .  S
C840        C867   1.497       .  S
C840        O846   1.260       .  A
C840        O848   1.258       .  A
O841        C849   1.262       .  A
O842        C849   1.259       .  A
C843        O850   1.254       .  A
C843        O844   1.270       .  A
C843        C917   1.504       .  S
C845        O847   1.261       .  A
C845        O851   1.266       .  A
C845        C967   1.465       .  S
C849        C937   1.481       .  S
In852       O854   2.204       .  S
In852       O855   2.224       .  S
In852       O863   2.217       .  S
In852       O857   2.281       .  S
In852       O859   2.266       .  S
In852       O860   2.208       .  S
In852       O861   2.280       .  S
In852       O864   2.256       .  S
C853        O859   1.258       .  A
C853        O861   1.270       .  A
O854        C862   1.261       .  A
O855        C862   1.267       .  A
C856        O863   1.259       .  A
C856        O857   1.271       .  A
C856        C944   1.489       .  S
C858        O860   1.264       .  A
C858        O864   1.265       .  A
C858        C954   1.478       .  S
C862        C927   1.476       .  S
C865        C866   1.523       .  S
C865        C871   1.539       .  S
C865        C869   1.547       .  S
C866        H873   1.086       .  S
C866        C867   1.369       .  D
C867        C868   1.560       .  S
C868        C872   1.569       .  S
C868        C870   1.551       .  S
C868        H874   1.108       .  S
C869        H875   1.084       .  S
C869        C870   1.375       .  D
C870        C877   1.552   1_655  S
C871        H876   1.086       .  S
C871        C872   1.364       .  D
C872        C908   1.506       .  S
C877        C878   1.551       .  S
C877        C883   1.524       .  S
C877        C881   1.540       .  S
C878        H885   1.084       .  S
C878        C879   1.365       .  D
C879        C880   1.528       .  S
C880        C884   1.575       .  S
C880        C882   1.557       .  S
C880        H886   1.110       .  S
C881        H887   1.079       .  S
C881        C882   1.355       .  D
C882        C894   1.509       .  S
C883        H888   1.086       .  S
C883        C884   1.373       .  D
C889        C890   1.520       .  S
C889        C895   1.540       .  S
C889        C893   1.541       .  S
C890        H897   1.088       .  S
C890        C891   1.361       .  D
C891        C892   1.558       .  S
C892        C896   1.565       .  S
C892        C894   1.572       .  S
C892        H898   1.108       .  S
C893        H899   1.087       .  S
C893        C894   1.363       .  D
C895        H900   1.078       .  S
C895        C896   1.384       .  D
C896        C901   1.570   1_455  S
C901        C902   1.546       .  S
C901        C907   1.518       .  S
C901        C905   1.541       .  S
C902        H909   1.079       .  S
C902        C903   1.360       .  D
C903        C904   1.541       .  S
C904        C908   1.554       .  S
C904        C906   1.554       .  S
C904        H910   1.110       .  S
C905        H911   1.086       .  S
C905        C906   1.390       .  D
C907        H912   1.074   1_655  S
C907        C908   1.352       .  D
C913        C914   1.413       .  A
C913        C918   1.411   1_565  A
C913       Br920   1.933       .  S
C914        C915   1.412   1_565  A
C915        C916   1.418       .  A
C915       Br922   1.924   1_645  S
C916        C917   1.413       .  A
C916       Br921   1.919       .  S
C917        C918   1.418       .  A
C918       Br919   1.930       .  S
C923        C924   1.407       .  A
C923        C928   1.402       .  A
C923       Br930   1.932   1_565  S
C924        C925   1.412       .  A
C925        C926   1.402       .  A
C925       Br932   1.929   1_655  S
C926        C927   1.414       .  A
C926       Br931   1.935       .  S
C927        C928   1.411       .  A
C928       Br929   1.929       .  S
C933        C934   1.409       .  A
C933        C938   1.401       .  A
C933       Br940   1.933       .  S
C934        C935   1.407       .  A
C935        C936   1.405       .  A
C935       Br942   1.931       .  S
C936        C937   1.418       .  A
C936       Br941   1.934       .  S
C937        C938   1.415       .  A
C938       Br939   1.934       .  S
C943        C944   1.413   1_545  A
C943        C948   1.413       .  A
C943       Br950   1.926   1_545  S
C944        C945   1.410   1_565  A
C945        C946   1.408       .  A
C945       Br952   1.926   1_545  S
C946        C947   1.413       .  A
C946       Br951   1.930       .  S
C947        C948   1.415       .  A
C948       Br949   1.930       .  S
C953        C954   1.408       .  A
C953        C958   1.404       .  A
C953       Br960   1.934       .  S
C954        C955   1.412       .  A
C955        C956   1.410       .  A
C955       Br962   1.926       .  S
C956        C957   1.410       .  A
C956       Br961   1.931       .  S
C957        C958   1.412       .  A
C958       Br959   1.931       .  S
C963        C964   1.407       .  A
C963        C968   1.406       .  A
C963       Br970   1.924       .  S
C964        C965   1.404       .  A
C965        C966   1.402       .  A
C965       Br972   1.924       .  S
C966        C967   1.408       .  A
C966       Br971   1.932       .  S
C967        C968   1.406       .  A
C968       Br969   1.923       .  S
C973        C974   1.403       .  A
C973        C978   1.400   1_565  A
C973       Br980   1.929       .  S
C974        C975   1.405       .  A
C975        C976   1.402   1_565  A
C975       Br982   1.932       .  S
C976        C977   1.417       .  A
C976       Br981   1.932       .  S
C977        C978   1.413       .  A
C978       Br979   1.928       .  S
C983        C984   1.418       .  A
C983        C988   1.409       .  A
C983       Br990   1.937       .  S
C984        C985   1.412       .  A
C985        C986   1.419       .  A
C985       Br992   1.920       .  S
C986        C987   1.416       .  A
C986       Br991   1.927       .  S
C987        C988   1.416       .  A
C988       Br989   1.934       .  S
C993        C994   1.407       .  A
C993        C998   1.406       .  A
C993      Br1000   1.930       .  S
C994        C995   1.408       .  A
C995        C996   1.406       .  A
C995      Br1002   1.928       .  S
C996        C997   1.408       .  A
C996      Br1001   1.927       .  S
C997        C998   1.409       .  A
C998       Br999   1.925       .  S
C1003      C1004   1.407   1_545  A
C1003      C1008   1.399       .  A
C1003     Br1010   1.928   1_545  S
C1004      C1005   1.414   1_565  A
C1005      C1006   1.399       .  A
C1005     Br1012   1.937   1_545  S
C1006      C1007   1.410       .  A
C1006     Br1011   1.939       .  S
C1007      C1008   1.406       .  A
C1008     Br1009   1.931       .  S
C1013      C1014   1.408       .  A
C1013      C1018   1.411       .  A
C1013     Br1020   1.928       .  S
C1014      C1015   1.412       .  A
C1015      C1016   1.409       .  A
C1015     Br1022   1.929       .  S
C1016      C1017   1.414       .  A
C1016     Br1021   1.930       .  S
C1017      C1018   1.417       .  A
C1018     Br1019   1.930       .  S
C1023      C1024   1.408       .  A
C1023      C1028   1.403       .  A
C1023     Br1030   1.931       .  S
C1024      C1025   1.412       .  A
C1025      C1026   1.412       .  A
C1025     Br1032   1.930       .  S
C1026      C1027   1.409       .  A
C1026     Br1031   1.928       .  S
C1027      C1028   1.409       .  A
C1028     Br1029   1.934       .  S
C1033      C1034   1.407       .  A
C1033      C1038   1.407       .  A
C1033     Br1040   1.924       .  S
C1034      C1035   1.409       .  A
C1035      C1036   1.406       .  A
C1035     Br1042   1.926       .  S
C1036      C1037   1.407       .  A
C1036     Br1041   1.927       .  S
C1037      C1038   1.409       .  A
C1038     Br1039   1.928       .  S
C1043      C1044   1.410       .  A
C1043      C1048   1.420       .  A
C1043     Br1050   1.924       .  S
C1044      C1045   1.415       .  A
C1045      C1046   1.406       .  A
C1045     Br1052   1.936       .  S
C1046      C1047   1.416       .  A
C1046     Br1051   1.936       .  S
C1047      C1048   1.415       .  A
C1048     Br1049   1.923       .  S
C1053      C1054   1.404       .  A
C1053      C1058   1.408       .  A
C1053     Br1060   1.930       .  S
C1054      C1055   1.405       .  A
C1055      C1056   1.409       .  A
C1055     Br1062   1.926       .  S
C1056      C1057   1.413       .  A
C1056     Br1061   1.928       .  S
C1057      C1058   1.414       .  A
C1058     Br1059   1.921       .  S
C1063      C1064   1.414       .  A
C1063      C1068   1.408       .  A
C1063     Br1070   1.931       .  S
C1064      C1065   1.409       .  A
C1065      C1066   1.400       .  A
C1065     Br1072   1.931       .  S
C1066      C1067   1.409       .  A
C1066     Br1071   1.930       .  S
C1067      C1068   1.413       .  A
C1068     Br1069   1.932       .  S
C1073      C1074   1.419       .  A
C1073      C1078   1.404   1_545  A
C1073     Br1080   1.938       .  S
C1074      C1075   1.411       .  A
C1075      C1076   1.403   1_545  A
C1075     Br1082   1.931       .  S
C1076      C1077   1.408       .  A
C1076     Br1081   1.933       .  S
C1077      C1078   1.410       .  A
C1078     Br1079   1.935       .  S
C1083      C1084   1.413       .  A
C1083      C1088   1.412   1_545  A
C1083     Br1090   1.927       .  S
C1084      C1085   1.410       .  A
C1085      C1086   1.410   1_545  A
C1085     Br1092   1.927       .  S
C1086      C1087   1.411       .  A
C1086     Br1091   1.928       .  S
C1087      C1088   1.412       .  A
C1088     Br1089   1.931       .  S
C1093      C1094   1.406       .  A
C1093      C1098   1.408       .  A
C1093     Br1100   1.925       .  S
C1094      C1095   1.408       .  A
C1095      C1096   1.403       .  A
C1095     Br1102   1.932       .  S
C1096      C1097   1.406       .  A
C1096     Br1101   1.929       .  S
C1097      C1098   1.409       .  A
C1098     Br1099   1.929       .  S
C1103      C1104   1.405       .  A
C1103      C1108   1.410       .  A
C1103     Br1110   1.925       .  S
C1104      C1105   1.413       .  A
C1105      C1106   1.412       .  A
C1105     Br1112   1.928       .  S
C1106      C1107   1.412   1_545  A
C1106     Br1111   1.923   1_545  S
C1107      C1108   1.412   1_565  A
C1108     Br1109   1.922   1_545  S
C1113      C1114   1.406       .  A
C1113      C1118   1.399       .  A
C1113     Br1120   1.931       .  S
C1114      C1115   1.410       .  A
C1115      C1116   1.399       .  A
C1115     Br1122   1.937       .  S
C1116      C1117   1.416       .  A
C1116     Br1121   1.939       .  S
C1117      C1118   1.411       .  A
C1118     Br1119   1.934       .  S
C1123      C1124   1.412       .  A
C1123      C1128   1.406       .  A
C1123     Br1130   1.935       .  S
C1124      C1125   1.410       .  A
C1125      C1126   1.409       .  A
C1125     Br1132   1.930       .  S
C1126      C1127   1.408       .  A
C1126     Br1131   1.928       .  S
C1127      C1128   1.407       .  A
C1128     Br1129   1.926       .  S
C1133      C1134   1.414       .  A
C1133      C1138   1.407   1_545  A
C1133     Br1140   1.937       .  S
C1134      C1135   1.406       .  A
C1135      C1136   1.401   1_545  A
C1135     Br1142   1.932       .  S
C1136      C1137   1.413       .  A
C1136     Br1141   1.930       .  S
C1137      C1138   1.417       .  A
C1138     Br1139   1.936       .  S
C1143      C1144   1.414       .  A
C1143      C1148   1.408       .  A
C1143     Br1150   1.929       .  S
C1144      C1145   1.412       .  A
C1145      C1146   1.408       .  A
C1145     Br1152   1.929       .  S
C1146      C1147   1.405       .  A
C1146     Br1151   1.925       .  S
C1147      C1148   1.408       .  A
C1148     Br1149   1.929       .  S
C1153      C1154   1.410       .  A
C1153      C1158   1.404       .  A
C1153     Br1160   1.925       .  S
C1154      C1155   1.415       .  A
C1155      C1156   1.413       .  A
C1155     Br1162   1.930       .  S
C1156      C1157   1.413       .  A
C1156     Br1161   1.930       .  S
C1157      C1158   1.408       .  A
C1158     Br1159   1.932       .  S
C1163      C1164   1.414       .  A
C1163      C1168   1.413       .  A
C1163     Br1170   1.930       .  S
C1164      C1165   1.414       .  A
C1165      C1166   1.412       .  A
C1165     Br1172   1.925       .  S
C1166      C1167   1.411       .  A
C1166     Br1171   1.932       .  S
C1167      C1168   1.412       .  A
C1168     Br1169   1.931       .  S
C1173      C1174   1.409       .  A
C1173      C1178   1.407       .  A
C1173     Br1180   1.930       .  S
C1174      C1175   1.408       .  A
C1175      C1176   1.406       .  A
C1175     Br1182   1.928       .  S
C1176      C1177   1.409       .  A
C1176     Br1181   1.931       .  S
C1177      C1178   1.409       .  A
C1178     Br1179   1.927       .  S
C1183      C1184   1.411       .  A
C1183      C1188   1.400       .  A
C1183     Br1190   1.917       .  S
C1184      C1185   1.412       .  A
C1185      C1186   1.402       .  A
C1185     Br1192   1.930       .  S
C1186      C1187   1.404       .  A
C1186     Br1191   1.920       .  S
C1187      C1188   1.404       .  A
C1188     Br1189   1.927       .  S
C1193      C1194   1.405       .  A
C1193      C1198   1.402   1_455  A
C1193     Br1200   1.930       .  S
C1194      C1195   1.400       .  A
C1195      C1196   1.400   1_455  A
C1195     Br1202   1.918       .  S
C1196      C1197   1.410       .  A
C1196     Br1201   1.930       .  S
C1197      C1198   1.413       .  A
C1198     Br1199   1.932       .  S
C1203      C1204   1.417       .  A
C1203      C1208   1.410   1_655  A
C1203     Br1210   1.928       .  S
C1204      C1205   1.413       .  A
C1205      C1206   1.418   1_655  A
C1205     Br1212   1.928       .  S
C1206      C1207   1.417       .  A
C1206     Br1211   1.921       .  S
C1207      C1208   1.413       .  A
C1208     Br1209   1.934       .  S
C1213      C1214   1.407       .  A
C1213      C1218   1.409       .  A
C1213     Br1220   1.929       .  S
C1214      C1215   1.405       .  A
C1215      C1216   1.409       .  A
C1215     Br1222   1.928       .  S
C1216      C1217   1.417       .  A
C1216     Br1221   1.930       .  S
C1217      C1218   1.413       .  A
C1218     Br1219   1.926       .  S
C1223      C1224   1.407       .  A
C1223      C1228   1.408   1_455  A
C1223     Br1230   1.926       .  S
C1224      C1225   1.411       .  A
C1225      C1226   1.411   1_455  A
C1225     Br1232   1.932       .  S
C1226      C1227   1.416       .  A
C1226     Br1231   1.923       .  S
C1227      C1228   1.413       .  A
C1228     Br1229   1.930       .  S
C1233      C1234   1.412       .  A
C1233      C1238   1.404       .  A
C1233     Br1240   1.931       .  S
C1234      C1235   1.413       .  A
C1235      C1236   1.398       .  A
C1235     Br1242   1.938       .  S
C1236      C1237   1.413       .  A
C1236     Br1241   1.933       .  S
C1237      C1238   1.409       .  A
C1238     Br1239   1.931       .  S
C1243      C1244   1.409       .  A
C1243      C1248   1.412       .  A
C1243     Br1250   1.930       .  S
C1244      C1245   1.407       .  A
C1245      C1246   1.411       .  A
C1245     Br1252   1.925       .  S
C1246      C1247   1.415       .  A
C1246     Br1251   1.930       .  S
C1247      C1248   1.414       .  A
C1248     Br1249   1.928       .  S
C1253      C1254   1.404       .  A
C1253      C1258   1.398   1_655  A
C1253     Br1260   1.930       .  S
C1254      C1255   1.410       .  A
C1255      C1256   1.402   1_655  A
C1255     Br1262   1.934       .  S
C1256      C1257   1.411       .  A
C1256     Br1261   1.934       .  S
C1257      C1258   1.406       .  A
C1258     Br1259   1.919       .  S
C1263      C1264   1.413       .  A
C1263      C1268   1.414       .  A
C1263     Br1270   1.933       .  S
C1264      C1265   1.410       .  A
C1265      C1266   1.413       .  A
C1265     Br1272   1.926       .  S
C1266      C1267   1.411       .  A
C1266     Br1271   1.927       .  S
C1267      C1268   1.412       .  A
C1268     Br1269   1.928       .  S
C1273      C1274   1.409       .  A
C1273      C1278   1.405   1_655  A
C1273     Br1280   1.929       .  S
C1274      C1275   1.410       .  A
C1275      C1276   1.416   1_655  A
C1275     Br1282   1.921       .  S
C1276      C1277   1.414       .  A
C1276     Br1281   1.925       .  S
C1277      C1278   1.414       .  A
C1278     Br1279   1.930       .  S
C1283      C1284   1.409       .  A
C1283      C1288   1.407       .  A
C1283     Br1290   1.924   1_556  S
C1284      C1285   1.402       .  A
C1285      C1286   1.401       .  A
C1285     Br1292   1.924       .  S
C1286      C1287   1.406       .  A
C1286     Br1291   1.920   1_655  S
C1287      C1288   1.409       .  A
C1288     Br1289   1.926   1_556  S
C1293      C1294   1.409       .  A
C1293      C1298   1.404       .  A
C1293     Br1300   1.929       .  S
C1294      C1295   1.417       .  A
C1295      C1296   1.404       .  A
C1295     Br1302   1.938       .  S
C1296      C1297   1.413       .  A
C1296     Br1301   1.936       .  S
C1297      C1298   1.407       .  A
C1298     Br1299   1.930       .  S
C1303      C1304   1.410       .  A
C1303      C1308   1.409   1_455  A
C1303     Br1310   1.928       .  S
C1304      C1305   1.412       .  A
C1305      C1306   1.406       .  A
C1305     Br1312   1.933       .  S
C1306      C1307   1.408   1_455  A
C1306     Br1311   1.933   1_455  S
C1307      C1308   1.408       .  A
C1308     Br1309   1.929       .  S
C1313      C1314   1.406       .  A
C1313      C1318   1.410       .  A
C1313     Br1320   1.923       .  S
C1314      C1315   1.406       .  A
C1315      C1316   1.410       .  A
C1315     Br1322   1.927       .  S
C1316      C1317   1.408       .  A
C1316     Br1321   1.921       .  S
C1317      C1318   1.409       .  A
C1318     Br1319   1.927       .  S
C1323      C1324   1.408       .  A
C1323      C1328   1.415       .  A
C1323     Br1330   1.915       .  S
C1324      C1325   1.408       .  A
C1325      C1326   1.410       .  A
C1325     Br1332   1.925       .  S
C1326      C1327   1.412       .  A
C1326     Br1331   1.925       .  S
C1327      C1328   1.412       .  A
C1328     Br1329   1.926       .  S
C1333      C1334   1.410       .  A
C1333      C1338   1.400       .  A
C1333     Br1340   1.933       .  S
C1334      C1335   1.409       .  A
C1335      C1336   1.408       .  A
C1335     Br1342   1.926       .  S
C1336      C1337   1.409       .  A
C1336     Br1341   1.929       .  S
C1337      C1338   1.405       .  A
C1338     Br1339   1.930       .  S
C1343      C1344   1.412       .  A
C1343      C1348   1.407   1_655  A
C1343     Br1350   1.930       .  S
C1344      C1345   1.409   1_655  A
C1345      C1346   1.404       .  A
C1345     Br1352   1.927   1_455  S
C1346      C1347   1.404       .  A
C1346     Br1351   1.927       .  S
C1347      C1348   1.410       .  A
C1348     Br1349   1.929       .  S
C1353      C1354   1.409       .  A
C1353      C1358   1.405       .  A
C1353     Br1360   1.934       .  S
C1354      C1355   1.408       .  A
C1355      C1356   1.412       .  A
C1355     Br1362   1.931       .  S
C1356      C1357   1.419       .  A
C1356     Br1361   1.932       .  S
C1357      C1358   1.414       .  A
C1358     Br1359   1.935       .  S
C1363      C1364   1.408       .  A
C1363      C1368   1.401   1_455  A
C1363     Br1370   1.930       .  S
C1364      C1365   1.413       .  A
C1365      C1366   1.405   1_455  A
C1365     Br1372   1.934       .  S
C1366      C1367   1.416       .  A
C1366     Br1371   1.938       .  S
C1367      C1368   1.408       .  A
C1368     Br1369   1.932       .  S
C1373      C1374   1.419       .  A
C1373      C1378   1.417       .  A
C1373     Br1380   1.929       .  S
C1374      C1375   1.417       .  A
C1375      C1376   1.406       .  A
C1375     Br1382   1.927       .  S
C1376      C1377   1.405       .  A
C1376     Br1381   1.930       .  S
C1377      C1378   1.407       .  A
C1378     Br1379   1.923       .  S
C1383      C1384   1.406       .  A
C1383      C1388   1.409       .  A
C1383     Br1390   1.925       .  S
C1384      C1385   1.406       .  A
C1385      C1386   1.407       .  A
C1385     Br1392   1.921       .  S
C1386      C1387   1.409       .  A
C1386     Br1391   1.929       .  S
C1387      C1388   1.411       .  A
C1388     Br1389   1.926       .  S
C1393      C1394   1.411       .  A
C1393      C1398   1.411   1_556  A
C1393     Br1400   1.935       .  S
C1394      C1395   1.411       .  A
C1395      C1396   1.418   1_556  A
C1395     Br1402   1.920       .  S
C1396      C1397   1.418       .  A
C1396     Br1401   1.928       .  S
C1397      C1398   1.420       .  A
C1398     Br1399   1.932       .  S
C1403      C1404   1.418       .  A
C1403      C1408   1.400       .  A
C1403     Br1410   1.926       .  S
C1404      C1405   1.414       .  A
C1405      C1406   1.402       .  A
C1405     Br1412   1.931       .  S
C1406      C1407   1.408       .  A
C1406     Br1411   1.930       .  S
C1407      C1408   1.406       .  A
C1408     Br1409   1.938       .  S
C1413      C1414   1.408       .  A
C1413      C1418   1.407       .  A
C1413     Br1420   1.933       .  S
C1414      C1415   1.404       .  A
C1415      C1416   1.401       .  A
C1415     Br1422   1.930       .  S
C1416      C1417   1.411       .  A
C1416     Br1421   1.926       .  S
C1417      C1418   1.419       .  A
C1418     Br1419   1.934       .  S
C1423      C1424   1.409       .  A
C1423      C1428   1.409   1_554  A
C1423     Br1430   1.931       .  S
C1424      C1425   1.413       .  A
C1425      C1426   1.410   1_554  A
C1425     Br1432   1.937       .  S
C1426      C1427   1.413       .  A
C1426     Br1431   1.925       .  S
C1427      C1428   1.411       .  A
C1428     Br1429   1.925       .  S
C1433      C1434   1.413       .  A
C1433      C1438   1.409       .  A
C1433     Br1440   1.928       .  S
C1434      C1435   1.411       .  A
C1435      C1436   1.406       .  A
C1435     Br1442   1.927       .  S
C1436      C1437   1.407       .  A
C1436     Br1441   1.926       .  S
C1437      C1438   1.407       .  A
C1438     Br1439   1.924       .  S
C1443      C1444   1.409       .  A
C1443      C1448   1.407       .  A
C1443     Br1450   1.926       .  S
C1444      C1445   1.406       .  A
C1445      C1446   1.407       .  A
C1445     Br1452   1.925       .  S
C1446      C1447   1.409       .  A
C1446     Br1451   1.928       .  S
C1447      C1448   1.405       .  A
C1448     Br1449   1.926       .  S
C1453      C1454   1.412       .  A
C1453      C1458   1.407   1_554  A
C1453     Br1460   1.927       .  S
C1454      C1455   1.402       .  A
C1455      C1456   1.399   1_554  A
C1455     Br1462   1.918       .  S
C1456      C1457   1.404       .  A
C1456     Br1461   1.925       .  S
C1457      C1458   1.408       .  A
C1458     Br1459   1.929       .  S
C1463      C1464   1.410       .  A
C1463      C1468   1.409       .  A
C1463     Br1470   1.931       .  S
C1464      C1465   1.412       .  A
C1465      C1466   1.411       .  A
C1465     Br1472   1.935       .  S
C1466      C1467   1.417       .  A
C1466     Br1471   1.934       .  S
C1467      C1468   1.411       .  A
C1468     Br1469   1.929       .  S
C1473      C1474   1.417       .  A
C1473      C1478   1.407       .  A
C1473     Br1480   1.928       .  S
C1474      C1475   1.411       .  A
C1475      C1476   1.405       .  A
C1475     Br1482   1.928       .  S
C1476      C1477   1.406       .  A
C1476     Br1481   1.928       .  S
C1477      C1478   1.403       .  A
C1478     Br1479   1.927       .  S
C1483      C1484   1.409   1_554  A
C1483      C1488   1.410       .  A
C1483     Br1490   1.929   1_554  S
C1484      C1485   1.405       .  A
C1485      C1486   1.399   1_556  A
C1485     Br1492   1.924       .  S
C1486      C1487   1.409       .  A
C1486     Br1491   1.928       .  S
C1487      C1488   1.414       .  A
C1488     Br1489   1.924       .  S
C1493      C1494   1.415       .  A
C1493      C1498   1.416       .  A
C1493     Br1500   1.933       .  S
C1494      C1495   1.410       .  A
C1495      C1496   1.407       .  A
C1495     Br1502   1.930       .  S
C1496      C1497   1.412       .  A
C1496     Br1501   1.932       .  S
C1497      C1498   1.416       .  A
C1498     Br1499   1.932       .  S
C1503      C1504   1.409       .  A
C1503      C1508   1.405       .  A
C1503     Br1510   1.925       .  S
C1504      C1505   1.405       .  A
C1505      C1506   1.406       .  A
C1505     Br1512   1.924       .  S
C1506      C1507   1.408       .  A
C1506     Br1511   1.926       .  S
C1507      C1508   1.403       .  A
C1508     Br1509   1.924       .  S
C1513      C1514   1.423       .  A
C1513      C1518   1.409       .  A
C1513     Br1520   1.931       .  S
C1514      C1515   1.418       .  A
C1515      C1516   1.403       .  A
C1515     Br1522   1.938       .  S
C1516      C1517   1.407       .  A
C1516     Br1521   1.936       .  S
C1517      C1518   1.403       .  A
C1518     Br1519   1.933       .  S
C1523      C1524   1.407       .  A
C1523      C1528   1.410       .  A
C1523     Br1530   1.927       .  S
C1524      C1525   1.407       .  A
C1525      C1526   1.416       .  A
C1525     Br1532   1.926       .  S
C1526      C1527   1.419       .  A
C1526     Br1531   1.930       .  S
C1527      C1528   1.414       .  A
C1528     Br1529   1.929       .  S
C1533      C1534   1.409       .  A
C1533      C1538   1.406       .  A
C1533     Br1540   1.929       .  S
C1534      C1535   1.405       .  A
C1535      C1536   1.404       .  A
C1535     Br1542   1.929       .  S
C1536      C1537   1.408       .  A
C1536     Br1541   1.929       .  S
C1537      C1538   1.405       .  A
C1538     Br1539   1.928       .  S
C1543      C1544   1.405       .  A
C1543      C1548   1.399       .  A
C1543     Br1550   1.930       .  S
C1544      C1545   1.405       .  A
C1545      C1546   1.399       .  A
C1545     Br1552   1.936       .  S
C1546      C1547   1.418       .  A
C1546     Br1551   1.937       .  S
C1547      C1548   1.410       .  A
C1548     Br1549   1.932       .  S
C1553      C1554   1.399       .  A
C1553      C1558   1.403   1_554  A
C1553     Br1560   1.916       .  S
C1554      C1555   1.402       .  A
C1555      C1556   1.405   1_554  A
C1555     Br1562   1.910       .  S
C1556      C1557   1.407       .  A
C1556     Br1561   1.926       .  S
C1557      C1558   1.404       .  A
C1558     Br1559   1.917       .  S
C1563      C1564   1.408   1_556  A
C1563      C1568   1.413       .  A
C1563     Br1570   1.917   1_556  S
C1564      C1565   1.406       .  A
C1565      C1566   1.410   1_554  A
C1565     Br1572   1.927       .  S
C1566      C1567   1.414       .  A
C1566     Br1571   1.928       .  S
C1567      C1568   1.408       .  A
C1568     Br1569   1.923       .  S
C1573      C1574   1.427       .  A
C1573      C1578   1.415       .  A
C1573     Br1580   1.935       .  S
C1574      C1575   1.424       .  A
C1575      C1576   1.412       .  A
C1575     Br1582   1.939       .  S
C1576      C1577   1.413       .  A
C1576     Br1581   1.938       .  S
C1577      C1578   1.407       .  A
C1578     Br1579   1.934       .  S
C1583      C1584   1.411       .  A
C1583      C1588   1.402   1_556  A
C1583     Br1590   1.933       .  S
C1584      C1585   1.406       .  A
C1585      C1586   1.397       .  A
C1585     Br1592   1.929       .  S
C1586      C1587   1.405   1_556  A
C1586     Br1591   1.927   1_556  S
C1587      C1588   1.412       .  A
C1588     Br1589   1.933       .  S
C1593      C1594   1.415       .  A
C1593      C1598   1.412       .  A
C1593     Br1600   1.929       .  S
C1594      C1595   1.412       .  A
C1595      C1596   1.411       .  A
C1595     Br1602   1.929       .  S
C1596      C1597   1.409       .  A
C1596     Br1601   1.926       .  S
C1597      C1598   1.406       .  A
C1598     Br1599   1.923       .  S
C1603      C1604   1.411       .  A
C1603      C1608   1.412   1_556  A
C1603     Br1610   1.928       .  S
C1604      C1605   1.415       .  A
C1605      C1606   1.408       .  A
C1605     Br1612   1.934       .  S
C1606      C1607   1.408   1_556  A
C1606     Br1611   1.930       .  S
C1607      C1608   1.409       .  A
C1608     Br1609   1.928       .  S
C1613      C1614   1.404       .  A
C1613      C1618   1.404       .  A
C1613     Br1620   1.931       .  S
C1614      C1615   1.407       .  A
C1615      C1616   1.403       .  A
C1615     Br1622   1.933       .  S
C1616      C1617   1.413       .  A
C1616     Br1621   1.933       .  S
C1617      C1618   1.412       .  A
C1618     Br1619   1.931       .  S
C1623      C1624   1.405       .  A
C1623      C1628   1.407       .  A
C1623     Br1630   1.924   1_545  S
C1624      C1625   1.405       .  A
C1625      C1626   1.400       .  A
C1625     Br1632   1.918   1_554  S
C1626      C1627   1.403       .  A
C1626     Br1631   1.924   1_554  S
C1627      C1628   1.411       .  A
C1628     Br1629   1.922   1_545  S
