geometry optimzed in LAMMPS
_audit_creation_date              2020-11-30 
_audit_creation_method            'lammps2cif' 
_symmetry_space_group_name_H-M    'P1' 
_symmetry_Int_Tables_number       1 
_symmetry_cell_setting            triclinic 
loop_ 
_symmetry_equiv_pos_as_xyz 
  x,y,z 
_cell_length_a                    32.61291254 
_cell_length_b                    33.03283586935979 
_cell_length_c                    32.54443559900013 
_cell_angle_alpha                 89.91714922534396 
_cell_angle_beta                  90.22494858961065 
_cell_angle_gamma                 91.29727430473713 
loop_ 
_atom_site_label 
_atom_site_type_symbol 
_atom_site_fract_x 
_atom_site_fract_y 
_atom_site_fract_z 
_atom_site_charge 
C1          C  0.58931308  0.65787819  0.58662530     0.87400
C2          C  0.63127669  0.64044627  0.57648834    -0.52900
C3          C  0.63467462  0.60001714  0.58453711     0.10300
C4          C  0.59543771  0.58030331  0.60242419     0.21300
C5          C  0.55852092  0.63056710  0.56267508    -0.53600
C6          C  0.56196349  0.59010624  0.57061585     0.10400
C7          C  0.58173722  0.64645002  0.63184935    -0.53100
C8          C  0.58529511  0.60623420  0.64039297     0.11000
H9          H  0.65664326  0.65908052  0.56508257     0.15500
H10         H  0.59779855  0.54748370  0.60926232     0.01200
H11         H  0.53496439  0.64126232  0.54209295     0.15800
H12         H  0.57526360  0.66857601  0.65548778     0.15600
C13         C  0.05048527  0.08959247  0.65049372     0.87400
C14         C  0.00674303  0.07910216  0.63578779    -0.52900
C15         C  0.00045847  0.08239513  0.59435027     0.10300
C16         C  0.03956852  0.09610606  0.57088823     0.21300
C17         C  0.07778373  0.06206797  0.62499546    -0.53600
C18         C  0.07198037  0.06480319  0.58356417     0.10400
C19         C  0.05973430  0.13201554  0.63364082    -0.53100
C20         C  0.05344052  0.13596803  0.59243332     0.11000
H21         H  0.98234465  0.07089021  0.65705836     0.15500
H22         H  0.03537598  0.09877569  0.53717401     0.01200
H23         H  0.09882994  0.04038264  0.63748782     0.15800
H24         H  0.06791028  0.15764981  0.65315025     0.15600
C25         C  0.14898139  0.59917836  0.03789619     0.87400
C26         C  0.13100297  0.63982616  0.05123040    -0.52900
C27         C  0.08977427  0.64269279  0.04469636     0.10300
C28         C  0.06967172  0.60422843  0.02582890     0.21300
C29         C  0.12337857  0.56740854  0.06151148    -0.53600
C30         C  0.08207598  0.56978805  0.05549439     0.10400
C31         C  0.13569029  0.59449623  0.99298148    -0.53100
C32         C  0.09461114  0.59719463  0.98622302     0.11000
H33         H  0.14848844  0.66514293  0.06379317     0.15500
H34         H  0.03612286  0.60633827  0.02051982     0.01200
H35         H  0.13682794  0.54449781  0.08104575     0.15800
H36         H  0.15734296  0.58990378  0.96819871     0.15600
C37         C  0.46375556  0.53196846  0.53941571     0.87400
C38         C  0.48152635  0.49098342  0.55101672    -0.52900
C39         C  0.52214081  0.48711538  0.54218784     0.10300
C40         C  0.54196087  0.52570576  0.52305214     0.21300
C41         C  0.49124627  0.56326311  0.56186004    -0.53600
C42         C  0.53202201  0.56005312  0.55362566     0.10400
C43         C  0.47454500  0.53804216  0.49393582    -0.53100
C44         C  0.51499323  0.53404912  0.48490195     0.11000
H45         H  0.46271987  0.46615016  0.56306257     0.15500
H46         H  0.57509554  0.52312127  0.51603253     0.01200
H47         H  0.48038803  0.58697280  0.58169728     0.15800
H48         H  0.45166456  0.54360877  0.47034784     0.15600
C49         C  0.57496651  0.97169703  0.08216796     0.87400
C50         C  0.56561457  0.98861408  0.12501038    -0.52900
C51         C  0.57625527  0.02859242  0.13009631     0.10300
C52         C  0.59403041  0.04879352  0.09116454     0.21300
C53         C  0.55252437  0.99935184  0.05241053    -0.53600
C54         C  0.56167104  0.03967355  0.05724840     0.10400
C55         C  0.62076144  0.98220475  0.07660854    -0.53100
C56         C  0.63099386  0.02213053  0.08078382     0.11000
H57         H  0.55614827  0.97008633  0.15093879     0.15500
H58         H  0.60231645  0.08138278  0.09490947     0.01200
H59         H  0.53144627  0.98794081  0.02898851     0.15800
H60         H  0.64386611  0.95949316  0.07187575     0.15600
C61         C  0.02560495  0.47147899  0.08758140     0.87400
C62         C  0.98350400  0.49016298  0.07934271    -0.52900
C63         C  0.98126498  0.52994380  0.08996702     0.10300
C64         C  0.02144537  0.54825851  0.10746621     0.21300
C65         C  0.05585552  0.49917654  0.06413546    -0.53600
C66         C  0.05357986  0.53929111  0.07399871     0.10400
C67         C  0.03386033  0.48041643  0.13311065    -0.53100
C68         C  0.03227684  0.52027355  0.14407228     0.11000
H69         H  0.95673914  0.47416306  0.06743201     0.15500
H70         H  0.01968825  0.58079621  0.11564437     0.01200
H71         H  0.07743050  0.48801271  0.04170877     0.15800
H72         H  0.03875641  0.45633710  0.15521384     0.15600
C73         C  0.52907658  0.09486232  0.95965348     0.87400
C74         C  0.54087331  0.13689228  0.97616194    -0.52900
C75         C  0.53377044  0.14213905  0.01708299     0.10300
C76         C  0.51503009  0.10416586  0.03837099     0.21300
C77         C  0.55184503  0.06521470  0.98700888    -0.53600
C78         C  0.54505662  0.06972925  0.02802130     0.10400
C79         C  0.48379118  0.08869068  0.97200083    -0.53100
C80         C  0.47589735  0.09445786  0.01273246     0.11000
H81         H  0.55254484  0.16114014  0.95653099     0.15500
H82         H  0.50918060  0.10814561  0.07169453     0.01200
H83         H  0.57118953  0.04174266  0.97481257     0.15800
H84         H  0.45912799  0.08054794  0.95113159     0.15600
C85         C  0.10981010  0.96341503  0.54470447     0.87400
C86         C  0.15375876  0.97944891  0.55352294    -0.52900
C87         C  0.16082132  0.01894919  0.54268386     0.10300
C88         C  0.12278947  0.03958394  0.52433198     0.21300
C89         C  0.08226272  0.99302779  0.56693380    -0.53600
C90         C  0.08886183  0.03286115  0.55684461     0.10400
C91         C  0.10354815  0.97234371  0.49901021    -0.53100
C92         C  0.11009372  0.01188297  0.48807121     0.11000
H93         H  0.17858904  0.96136189  0.56497164     0.15500
H94         H  0.12844625  0.07180243  0.51587557     0.01200
H95         H  0.06087297  0.98341982  0.59075080     0.15800
H96         H  0.09485321  0.94901154  0.47692997     0.15600
Zn97       Zn  0.08799386  0.09268770  0.04000194     1.49700
Zn98       Zn  0.02088101  0.08370244  0.11131365     1.49400
Zn99       Zn  0.01991516  0.02046261  0.03732201     1.49100
Zn100      Zn  0.09533841  0.01977339  0.10159581     1.49500
O101        O  0.05585889  0.05400068  0.07281042    -1.83200
O102        O  0.07387234  0.14972321  0.05303695    -0.73900
O103        O  0.95998133  0.06970884  0.10308712    -0.73700
O104        O  0.02954361  0.03418895  0.97757181    -0.73200
O105        O  0.02726438  0.14457862  0.10223658    -0.73900
O106        O  0.07534583  0.08499350  0.98041704    -0.73500
O107        O  0.95947883  0.02923527  0.04882181    -0.74100
O108        O  0.08271023  0.96004225  0.09014022    -0.73500
O109        O  0.03797581  0.07174091  0.17010483    -0.74200
O110        O  0.03064853  0.96097417  0.04594868    -0.73600
O111        O  0.09034673  0.03024334  0.16240984    -0.74100
O112        O  0.15546747  0.03316241  0.08687364    -0.74000
O113        O  0.14923012  0.08802554  0.04834181    -0.73800
C114        C  0.04933766  0.16608470  0.07794961     0.78000
C115        C  0.94033545  0.04889920  0.07611732     0.78500
C116        C  0.05191186  0.06111821  0.95997838     0.77500
C117        C  0.05625095  0.94146919  0.06757650     0.77800
C118        C  0.06695443  0.05095802  0.18515607     0.79000
C119        C  0.17163839  0.06260814  0.06678249     0.78000
Zn120      Zn  0.61668813  0.04205551  0.50879812     1.49700
Zn121      Zn  0.61796041  0.11278993  0.57613097     1.49400
Zn122      Zn  0.54559252  0.10938644  0.50879424     1.49100
Zn123      Zn  0.54806607  0.04176869  0.57756335     1.49500
O124        O  0.58226114  0.07665270  0.54275026    -1.83200
O125        O  0.67698745  0.05229987  0.52058829    -0.73900
O126        O  0.60553565  0.17195914  0.56548557    -0.73700
O127        O  0.55773629  0.10050314  0.44908345    -0.73200
O128        O  0.67849658  0.10312184  0.56506871    -0.73900
O129        O  0.60741836  0.05527669  0.44894621    -0.73500
O130        O  0.55456930  0.16913774  0.52006413    -0.74100
O131        O  0.48742328  0.04733476  0.56560053    -0.73500
O132        O  0.60805956  0.10251500  0.63660526    -0.74200
O133        O  0.48517818  0.09543577  0.51816616    -0.73600
O134        O  0.55849923  0.05522698  0.63635138    -0.74100
O135        O  0.56165638  0.98306739  0.57139528    -0.74000
O136        O  0.60587729  0.98183549  0.51990186    -0.73800
C137        C  0.69703508  0.07740571  0.54302813     0.78000
C138        C  0.57924002  0.18950600  0.54291455     0.78500
C139        C  0.58327266  0.07885523  0.43004684     0.77500
C140        C  0.46700290  0.06984417  0.54156483     0.77800
C141        C  0.58321405  0.07882416  0.65558010     0.79000
C142        C  0.58442280  0.96348981  0.54716842     0.78000
Zn143      Zn  0.53464066  0.58722005  0.09901501     1.49700
Zn144      Zn  0.59940641  0.51778819  0.09835985     1.49400
Zn145      Zn  0.53363809  0.52243851  0.02428114     1.49100
Zn146      Zn  0.60386213  0.59002095  0.02998916     1.49500
O147        O  0.56802782  0.55410876  0.06281644    -1.83200
O148        O  0.54126712  0.57420377  0.15931059    -0.73900
O149        O  0.58686392  0.45868030  0.08416462    -0.73700
O150        O  0.47429908  0.53701398  0.03122177    -0.73200
O151        O  0.58556718  0.52439744  0.15928669    -0.73900
O152        O  0.47546536  0.57958463  0.08404770    -0.73500
O153        O  0.53849554  0.46252719  0.03613336    -0.74100
O154        O  0.59748043  0.58046290  0.96848405    -0.73500
O155        O  0.65992011  0.53154941  0.09214436    -0.74200
O156        O  0.54841687  0.53317041  0.96409767    -0.73600
O157        O  0.66276163  0.58206012  0.04685285    -0.74100
O158        O  0.59112537  0.64882225  0.03976896    -0.74000
O159        O  0.54784815  0.64641423  0.09232025    -0.73800
C160        C  0.56238132  0.54837653  0.17861807     0.78000
C161        C  0.56079461  0.44161938  0.06002904     0.78500
C162        C  0.45591558  0.55979795  0.05640751     0.77500
C163        C  0.57400339  0.55749443  0.94687616     0.77800
C164        C  0.68039551  0.55803105  0.07166288     0.79000
C165        C  0.56940147  0.66636421  0.06652146     0.78000
Zn166      Zn  0.01140972  0.58647146  0.60161358     1.49700
Zn167      Zn  0.07649835  0.51634980  0.60501787     1.49400
Zn168      Zn  0.00783115  0.51441773  0.53383305     1.49100
Zn169      Zn  0.07856205  0.58105176  0.53106847     1.49500
O170        O  0.04339336  0.54948154  0.56798488    -1.83200
O171        O  0.02461943  0.58054027  0.66209050    -0.73900
O172        O  0.06502909  0.45668839  0.59524136    -0.73700
O173        O  0.94885368  0.52216658  0.54993936    -0.73200
O174        O  0.06850687  0.53041577  0.66556680    -0.73900
O175        O  0.95114281  0.57330471  0.59440735    -0.73500
O176        O  0.02151178  0.45534461  0.54261477    -0.74100
O177        O  0.06346520  0.57334125  0.47129290    -0.73500
O178        O  0.13621808  0.52484961  0.59208206    -0.74200
O179        O  0.01345771  0.52691982  0.47243606    -0.73600
O180        O  0.13722911  0.56573196  0.53788371    -0.74100
O181        O  0.07538362  0.64016320  0.54384679    -0.74000
O182        O  0.02431636  0.64555453  0.58814406    -0.73800
C183        C  0.04740339  0.55743208  0.68310773     0.78000
C184        C  0.04410081  0.43702666  0.56843402     0.78500
C185        C  0.93096045  0.54668723  0.57381671     0.77500
C186        C  0.03731838  0.55089685  0.45247451     0.77800
C187        C  0.15571893  0.54401635  0.56408950     0.79000
C188        C  0.05245218  0.66173467  0.56604652     0.78000
C189        C  0.26474129  0.06066976  0.50915902    -0.27300
C190        C  0.28876890  0.05315741  0.54428729     0.06300
C191        C  0.26885868  0.04020867  0.58048720     0.25900
C192        C  0.22662407  0.03183531  0.58042762    -0.11800
C193        C  0.20307731  0.03683581  0.54461952    -0.25700
C194        C  0.22224645  0.05268606  0.50928026     0.36700
C195        C  0.33445582  0.05726560  0.54265831     0.06300
F196        F  0.29032006  0.03500800  0.61585673    -0.19500
H197        H  0.21240283  0.02001486  0.60811808     0.16100
F198        F  0.20060092  0.05745332  0.47398065    -0.23200
H199        H  0.27917689  0.07088070  0.48096558     0.17900
C200        C  0.35943940  0.02642514  0.55807172     0.25900
C201        C  0.40219891  0.03093731  0.55765399    -0.11800
C202        C  0.42136574  0.06576608  0.54097748    -0.25800
C203        C  0.39643350  0.09600641  0.52412505     0.36800
C204        C  0.35350716  0.09175303  0.52515469    -0.27400
F205        F  0.34261083  0.99127687  0.57255537    -0.19600
H206        H  0.42039619  0.00670316  0.57000267     0.16100
F207        F  0.41335284  0.13011435  0.50742455    -0.23300
H208        H  0.33507285  0.11578735  0.51276889     0.18000
C209        C  0.05171130  0.86128678  0.55072819    -0.27300
C210        C  0.08121253  0.83555998  0.56710189     0.06300
C211        C  0.11925534  0.85213854  0.57961202     0.25900
C212        C  0.12826347  0.89330275  0.57402492    -0.11800
C213        C  0.09971610  0.91907994  0.55530557    -0.25700
C214        C  0.06065931  0.90252150  0.54504775     0.36700
C215        C  0.07354037  0.79116465  0.56806257     0.06300
F216        F  0.14798870  0.82835311  0.59702229    -0.19500
H217        H  0.15799470  0.90401894  0.58437521     0.16100
F218        F  0.03149250  0.92604644  0.52803768    -0.23200
H219        H  0.02216611  0.84913802  0.54080991     0.17900
C220        C  0.03798739  0.77401458  0.58592864     0.25900
C221        C  0.03115425  0.73195541  0.58527714    -0.11800
C222        C  0.05947300  0.70634595  0.56651794    -0.25800
C223        C  0.09515451  0.72382660  0.54887488     0.36800
C224        C  0.10188231  0.76564954  0.54965953    -0.27400
F225        F  0.01028607  0.79783600  0.60459886    -0.19600
H226        H  0.00361796  0.71946405  0.59936484     0.16100
F227        F  0.12401208  0.70065152  0.53114407    -0.23300
H228        H  0.12925912  0.77825513  0.53532537     0.18000
C229        C  0.12134201  0.04642498  0.28793565    -0.27300
C230        C  0.08855395  0.04788161  0.31568114     0.06300
C231        C  0.04856472  0.05274871  0.30022039     0.25900
C232        C  0.04166991  0.05476930  0.25771787    -0.11800
C233        C  0.07436077  0.05123819  0.23003797    -0.25700
C234        C  0.11441346  0.04766235  0.24562857     0.36700
C235        C  0.09622499  0.04106920  0.36015258     0.06300
F236        F  0.01597278  0.05347915  0.32599960    -0.19500
H237        H  0.01058961  0.05763249  0.24640241     0.16100
F238        F  0.14703611  0.04567524  0.21998073    -0.23200
H239        H  0.15248030  0.04357252  0.29910051     0.17900
C240        C  0.11946886  0.00790930  0.37282275     0.25900
C241        C  0.12526943  0.00002707  0.41443823    -0.11800
C242        C  0.10777138  0.02460824  0.44448961    -0.25800
C243        C  0.08562135  0.05855515  0.43216312     0.36800
C244        C  0.07982172  0.06663232  0.39020306    -0.27400
F245        F  0.13500189  0.98185024  0.34499227    -0.19600
H246        H  0.14274140  0.97387290  0.42326619     0.16100
F247        F  0.06787378  0.08257796  0.46047923    -0.23300
H248        H  0.06213437  0.09255022  0.38115868     0.18000
C249        C  0.51880135  0.33477125  0.03955537    -0.27300
C250        C  0.54766643  0.31086793  0.05977425     0.06300
C251        C  0.58030444  0.33019687  0.08092346     0.25900
C252        C  0.58420468  0.37254913  0.08120758    -0.11800
C253        C  0.55590359  0.39660158  0.06007965    -0.25700
C254        C  0.52277775  0.37707241  0.03953203     0.36700
C255        C  0.54554053  0.26603457  0.05537936     0.06300
F256        F  0.60846444  0.30806564  0.10131435    -0.19500
H257        H  0.60979682  0.38648389  0.09759303     0.16100
F258        F  0.49414678  0.39866846  0.01920068    -0.23200
H259        H  0.49370174  0.32057020  0.02262740     0.17900
C260        C  0.50921218  0.24355019  0.06355533     0.25900
C261        C  0.50653918  0.20205855  0.05427167    -0.11800
C262        C  0.53972236  0.18266746  0.03605713    -0.25800
C263        C  0.57651259  0.20476709  0.02959603     0.36800
C264        C  0.57938037  0.24589894  0.03939429    -0.27400
F265        F  0.47600897  0.26194606  0.07938730    -0.19600
H266        H  0.47776340  0.18569653  0.05892505     0.16100
F267        F  0.60915009  0.18692107  0.01198206    -0.23300
H268        H  0.60749712  0.26256158  0.03245414     0.18000
C269        C  0.59189229  0.09287230  0.86035951    -0.27300
C270        C  0.56173726  0.08527438  0.83046991     0.06300
C271        C  0.52065831  0.08065041  0.84239360     0.25900
C272        C  0.50986489  0.08333917  0.88360160    -0.11800
C273        C  0.53983637  0.09064576  0.91422996    -0.25700
C274        C  0.58118822  0.09546316  0.90181537     0.36700
C275        C  0.57256184  0.08200885  0.78670459     0.06300
F276        F  0.49063768  0.07450160  0.81388404    -0.19500
H277        H  0.47766914  0.08013858  0.89032535     0.16100
F278        F  0.61131591  0.10295492  0.92988536    -0.23200
H279        H  0.62378335  0.09647910  0.85158864     0.17900
C280        C  0.59195145  0.11435326  0.76583788     0.25900
C281        C  0.59685573  0.11264585  0.72319066    -0.11800
C282        C  0.58230556  0.07877137  0.70093860    -0.25800
C283        C  0.56497026  0.04555455  0.72240788     0.36800
C284        C  0.56022642  0.04730317  0.76484839    -0.27400
F285        F  0.60390683  0.14842707  0.78629983    -0.19600
H286        H  0.61044327  0.13850859  0.70741062     0.16100
F287        F  0.55203751  0.01151156  0.70243291    -0.23300
H288        H  0.54583477  0.02186085  0.78067015     0.18000
C289        C  0.28675806  0.04224209  0.06633696    -0.27300
C290        C  0.30356661  0.08109082  0.05834068     0.06300
C291        C  0.27660414  0.11369367  0.05495894     0.25900
C292        C  0.23412371  0.10725992  0.05795564    -0.11800
C293        C  0.21716874  0.06834879  0.06504089    -0.25700
C294        C  0.24410097  0.03587373  0.06986229     0.36700
C295        C  0.34842850  0.08700706  0.04979734     0.06300
F296        F  0.29130869  0.15198828  0.04876007    -0.19500
H297        H  0.21436306  0.13300752  0.05479798     0.16100
F298        F  0.22922897  0.99768549  0.07619079    -0.23200
H299        H  0.30658363  0.01646017  0.06841695     0.17900
C300        C  0.37911808  0.07006490  0.07483956     0.25900
C301        C  0.42086898  0.07394700  0.06400042    -0.11800
C302        C  0.43265862  0.09460187  0.02800376    -0.25800
C303        C  0.40202504  0.11322312  0.00431874     0.36800
C304        C  0.36070052  0.10901196  0.01485069    -0.27400
F305        F  0.36877595  0.04979413  0.10971372    -0.19600
H306        H  0.44379544  0.05965713  0.08293190     0.16100
F307        F  0.41194245  0.13542512  0.97048968    -0.23300
H308        H  0.33805085  0.12226294  0.99480835     0.18000
C309        C  0.06424897  0.57303336  0.34040560    -0.27300
C310        C  0.03364437  0.55090210  0.31938607     0.06300
C311        C  0.00337218  0.52990837  0.34208053     0.25900
C312        C  0.00425040  0.53055873  0.38520345    -0.11800
C313        C  0.03529436  0.55224498  0.40658573    -0.25700
C314        C  0.06507125  0.57402206  0.38345318     0.36700
C315        C  0.03572085  0.54669357  0.27407072     0.06300
F316        F  0.97378276  0.50764035  0.32251007    -0.19500
H317        H  0.98090353  0.51352499  0.40185152     0.16100
F318        F  0.09581957  0.59541198  0.40221478    -0.23200
H319        H  0.08805245  0.58902777  0.32335243     0.17900
C320        C  0.01060627  0.56909302  0.24768486     0.25900
C321        C  0.01158097  0.56259121  0.20499449    -0.11800
C322        C  0.03689668  0.53299210  0.18809666    -0.25800
C323        C  0.06391233  0.51261102  0.21468763     0.36800
C324        C  0.06309272  0.51936745  0.25708925    -0.27400
F325        F  0.98476542  0.59674212  0.26328151    -0.19600
H326        H  0.99143547  0.57969886  0.18547084     0.16100
F327        F  0.09121407  0.48596153  0.19980745    -0.23300
H328        H  0.08337065  0.50256234  0.27691401     0.18000
C329        C  0.87956675  0.56408206  0.04993652    -0.27300
C330        C  0.85737660  0.56719792  0.08667606     0.06300
C331        C  0.87836901  0.56461948  0.12440816     0.25900
C332        C  0.92014642  0.55614158  0.12521380    -0.11800
C333        C  0.94159562  0.55039837  0.08855189    -0.25700
C334        C  0.92134442  0.55551003  0.05081647     0.36700
C335        C  0.81195892  0.56748124  0.08528776     0.06300
F336        F  0.85798122  0.56805070  0.16047774    -0.19500
H337        H  0.93479832  0.55074255  0.15448837     0.16100
F338        F  0.94130363  0.54922210  0.01493412    -0.23200
H339        H  0.86395297  0.56545175  0.02054874     0.17900
C340        C  0.79100744  0.59493634  0.06030424     0.25900
C341        C  0.74830503  0.59189581  0.05628420    -0.11800
C342        C  0.72564822  0.56135811  0.07699695    -0.25800
C343        C  0.74678089  0.53450889  0.10280408     0.36800
C344        C  0.78939633  0.53760841  0.10671169    -0.27400
F345        F  0.81183991  0.62469195  0.03983806    -0.19600
H346        H  0.73303190  0.61338631  0.03664842     0.16100
F347        F  0.72659002  0.50467822  0.12376923    -0.23300
H348        H  0.80499053  0.51572281  0.12563755     0.18000
C349        C  0.01480048  0.27320426  0.10019460    -0.27300
C350        C  0.04137240  0.29630382  0.07512903     0.06300
C351        C  0.07078767  0.27653433  0.05160661     0.25900
C352        C  0.07322579  0.23435160  0.05292923    -0.11800
C353        C  0.04658189  0.21096024  0.07793301    -0.25700
C354        C  0.01732184  0.23099656  0.10176877     0.36700
C355        C  0.03817427  0.34095904  0.07393825     0.06300
F356        F  0.09648429  0.29793276  0.02656585    -0.19500
H357        H  0.09602164  0.22000883  0.03410531     0.16100
F358        F  0.99087307  0.20999964  0.12635228    -0.23200
H359        H  0.99214241  0.28800206  0.11883316     0.17900
C360        C  0.00073598  0.35886776  0.06446699     0.25900
C361        C  0.99686905  0.40085507  0.06650589    -0.11800
C362        C  0.03021060  0.42620436  0.07866063    -0.25800
C363        C  0.06826903  0.40791068  0.08643042     0.36800
C364        C  0.07210540  0.36586814  0.08394807    -0.27400
F365        F  0.96760557  0.33560369  0.05357964    -0.19600
H366        H  0.96704562  0.41241570  0.05963976     0.16100
F367        F  0.10144660  0.43060870  0.09832869    -0.23300
H368        H  0.10128699  0.35259198  0.09139701     0.18000
C369        C  0.55154475  0.08514395  0.31832364    -0.27300
C370        C  0.58922218  0.07989597  0.29855278     0.06300
C371        C  0.62529108  0.07816917  0.32229485     0.25900
C372        C  0.62313550  0.07825473  0.36511079    -0.11800
C373        C  0.58520843  0.08131532  0.38490972    -0.25700
C374        C  0.54948583  0.08611293  0.36120160     0.36700
C375        C  0.58979112  0.07029230  0.25418394     0.06300
F376        F  0.66246679  0.07519633  0.30404150    -0.19500
H377        H  0.65112552  0.07560842  0.38286321     0.16100
F378        F  0.51230631  0.08913068  0.37941235    -0.23200
H379        H  0.52339371  0.08627855  0.30061743     0.17900
C380        C  0.60776844  0.03430441  0.24112788     0.25900
C381        C  0.60416200  0.02208551  0.20047705    -0.11800
C382        C  0.58243216  0.04514335  0.17185187    -0.25800
C383        C  0.56556259  0.08186833  0.18417693     0.36800
C384        C  0.56894956  0.09420046  0.22533866    -0.27400
F385        F  0.62653428  0.00941664  0.26821260    -0.19600
H386        H  0.61737833  0.99363659  0.19159077     0.16100
F387        F  0.54410472  0.10451310  0.15711338    -0.23300
H388        H  0.55457773  0.12184830  0.23494446     0.18000
C389        C  0.58261663  0.86425373  0.03983617    -0.27300
C390        C  0.56114552  0.84098717  0.06916765     0.06300
C391        C  0.53915092  0.86115443  0.09979775     0.25900
C392        C  0.54153992  0.90335365  0.10288918    -0.11800
C393        C  0.56575219  0.92657454  0.07540518    -0.25700
C394        C  0.58372993  0.90644751  0.04199284     0.36700
C395        C  0.56284298  0.79600080  0.06827595     0.06300
F396        F  0.51524136  0.84013867  0.12683498    -0.19500
H397        H  0.52412196  0.91735599  0.12691786     0.16100
F398        F  0.60438904  0.92745358  0.01242008    -0.23200
H399        H  0.59978500  0.84982984  0.01575415     0.17900
C400        C  0.56040573  0.77450947  0.03091185     0.25900
C401        C  0.56383901  0.73241673  0.03050191    -0.11800
C402        C  0.56841754  0.71085422  0.06728194    -0.25800
C403        C  0.57041890  0.73199544  0.10465307     0.36800
C404        C  0.56832641  0.77420074  0.10501272    -0.27400
F405        F  0.55345667  0.79393369  0.99486542    -0.19600
H406        H  0.56161097  0.71646825  0.00148417     0.16100
F407        F  0.57543303  0.71190474  0.14069114    -0.23300
H408        H  0.57148040  0.78986426  0.13409477     0.18000
C409        C  0.74238456  0.02593900  0.11321771    -0.27300
C410        C  0.76143433  0.04467348  0.07934115     0.06300
C411        C  0.73658533  0.05924350  0.04721125     0.25900
C412        C  0.69362298  0.05461689  0.04901496    -0.11800
C413        C  0.67491676  0.03492948  0.08251714    -0.25700
C414        C  0.69974675  0.02075945  0.11466926     0.36700
C415        C  0.80714325  0.04734212  0.07754700     0.06300
F416        F  0.75385824  0.07750856  0.01394056    -0.19500
H417        H  0.67509127  0.06477158  0.02346334     0.16100
F418        F  0.68282940  0.00011073  0.14667299    -0.23200
H419        H  0.76074819  0.01385377  0.13798120     0.17900
C420        C  0.83005304  0.06398171  0.11039039     0.25900
C421        C  0.87304991  0.06446000  0.10961676    -0.11800
C422        C  0.89442360  0.04794407  0.07632322    -0.25800
C423        C  0.87133111  0.03123781  0.04336560     0.36800
C424        C  0.82827029  0.03117948  0.04403017    -0.27400
F425        F  0.81078087  0.08021403  0.14316147    -0.19600
H426        H  0.88963650  0.07762542  0.13539604     0.16100
F427        F  0.89016378  0.01503135  0.01031475    -0.23300
H428        H  0.81133999  0.01769550  0.01862298     0.18000
C429        C  0.58863203  0.29981930  0.57658321    -0.27300
C430        C  0.56866945  0.31974760  0.54427383     0.06300
C431        C  0.55321883  0.29661217  0.51113263     0.25900
C432        C  0.55719873  0.25451499  0.51077821    -0.11800
C433        C  0.57682380  0.23443791  0.54326035    -0.25700
C434        C  0.59277833  0.25768121  0.57617886     0.36700
C435        C  0.56228898  0.36422100  0.54603564     0.06300
F436        F  0.53284720  0.31448542  0.47976051    -0.19500
H437        H  0.54457774  0.23754253  0.48504199     0.16100
F438        F  0.61123574  0.23969722  0.60865980    -0.23200
H439        H  0.60088256  0.31695602  0.60237882     0.17900
C440        C  0.54443144  0.38188701  0.58078074     0.25900
C441        C  0.53426212  0.42279715  0.58039883    -0.11800
C442        C  0.54164718  0.44699571  0.54551877    -0.25800
C443        C  0.56154312  0.42997424  0.51164401     0.36800
C444        C  0.57170267  0.38896562  0.51198430    -0.27400
F445        F  0.53421022  0.35903454  0.61405803    -0.19600
H446        H  0.51878127  0.43521569  0.60678081     0.16100
F447        F  0.56831607  0.45197222  0.47700720    -0.23300
H448        H  0.58583353  0.37616324  0.48503772     0.18000
C449        C  0.26634623  0.52431088  0.59258416    -0.27300
C450        C  0.28663546  0.53653362  0.55667659     0.06300
C451        C  0.26396996  0.55070407  0.52310591     0.25900
C452        C  0.22141507  0.55318814  0.52578552    -0.11800
C453        C  0.20078746  0.54099042  0.56176745    -0.25700
C454        C  0.22371931  0.52615646  0.59514045     0.36700
C455        C  0.33151271  0.53442736  0.55427918     0.06300
F456        F  0.28312564  0.56279817  0.48805833    -0.19500
H457        H  0.20459613  0.56448105  0.49955786     0.16100
F458        F  0.20519012  0.51401271  0.63048112    -0.23200
H459        H  0.28360707  0.51310687  0.61856937     0.17900
C460        C  0.35665647  0.55878958  0.57955402     0.25900
C461        C  0.39926932  0.55808559  0.57553567    -0.11800
C462        C  0.41756524  0.53264920  0.54640151    -0.25800
C463        C  0.39177843  0.50664082  0.52277478     0.36800
C464        C  0.34928173  0.50812639  0.52626166    -0.27400
F465        F  0.33989015  0.58397723  0.60746928    -0.19600
H466        H  0.41719980  0.57744188  0.59564247     0.16100
F467        F  0.40773688  0.48008896  0.49567460    -0.23300
H468        H  0.33011783  0.48861409  0.50711488     0.18000
C469        C  0.51841403  0.50794736  0.37169269    -0.27300
C470        C  0.54612582  0.53727844  0.35630145     0.06300
C471        C  0.56603844  0.56391929  0.38416359     0.25900
C472        C  0.55771102  0.56148290  0.42649161    -0.11800
C473        C  0.52881796  0.53307092  0.44144479    -0.25700
C474        C  0.50963598  0.50595025  0.41367349     0.36700
C475        C  0.55255992  0.54063085  0.31108782     0.06300
F476        F  0.59330776  0.59240328  0.37038915    -0.19500
H477        H  0.57255281  0.58278048  0.44735434     0.16100
F478        F  0.48177313  0.47784764  0.42716980    -0.23200
H479        H  0.50253114  0.48728738  0.35091925     0.17900
C480        C  0.56401772  0.50687535  0.28778160     0.25900
C481        C  0.56796875  0.50980636  0.24496253    -0.11800
C482        C  0.55964603  0.54614264  0.22428721    -0.25800
C483        C  0.54811152  0.57993291  0.24770701     0.36800
C484        C  0.54497112  0.57717166  0.29060339    -0.27400
F485        F  0.57154249  0.47103861  0.30648643    -0.19600
H486        H  0.57672977  0.48329358  0.22784286     0.16100
F487        F  0.54019112  0.61582403  0.22926966    -0.23300
H488        H  0.53564364  0.60342610  0.30782495     0.18000
C489        C  0.25443098  0.55059977  0.03432764    -0.27300
C490        C  0.28098316  0.58245659  0.04610260     0.06300
C491        C  0.26462662  0.62037756  0.05505463     0.25900
C492        C  0.22234387  0.62590700  0.05346344    -0.11800
C493        C  0.19522014  0.59383977  0.04235277    -0.25700
C494        C  0.21217075  0.55615544  0.03221224     0.36700
C495        C  0.32564323  0.57594285  0.04887444     0.06300
F496        F  0.28966390  0.65258837  0.06405221    -0.19500
H497        H  0.21187684  0.65588893  0.05991925     0.16100
F498        F  0.18778638  0.52463712  0.01969317    -0.23200
H499        H  0.26645664  0.52119532  0.02694439     0.17900
C500        C  0.34771470  0.58723214  0.08435362     0.25900
C501        C  0.38988055  0.58152991  0.08653113    -0.11800
C502        C  0.41092490  0.56404081  0.05364270    -0.25800
C503        C  0.38865052  0.55194014  0.01838142     0.36800
C504        C  0.34638860  0.55792911  0.01614153    -0.27400
F505        F  0.32838343  0.60300263  0.11733547    -0.19600
H506        H  0.40604565  0.59067858  0.11425587     0.16100
F507        F  0.40766795  0.53525746  0.98568584    -0.23300
H508        H  0.32988950  0.54903448  0.98852257     0.18000
C509        C  0.07044865  0.54088742  0.79714393    -0.27300
C510        C  0.05462905  0.57603058  0.81472465     0.06300
C511        C  0.03619419  0.60459897  0.78902546     0.25900
C512        C  0.03338053  0.59791240  0.74659719    -0.11800
C513        C  0.04963056  0.56297187  0.72861725    -0.25700
C514        C  0.06838944  0.53447361  0.75454284     0.36700
C515        C  0.06012761  0.58404107  0.85935659     0.06300
F516        F  0.02089408  0.63902659  0.80501632    -0.19500
H517        H  0.01901612  0.62061565  0.72768831     0.16100
F518        F  0.08492469  0.50048552  0.73889717    -0.23200
H519        H  0.08536380  0.51881924  0.81641389     0.17900
C520        C  0.04232071  0.55839819  0.88930058     0.25900
C521        C  0.05099495  0.56453011  0.93122746    -0.11800
C522        C  0.07807766  0.59583296  0.94364043    -0.25800
C523        C  0.09452644  0.62235205  0.91372520     0.36800
C524        C  0.08535363  0.61662853  0.87210097    -0.27400
F525        F  0.01726329  0.52701764  0.87786694    -0.19600
H526        H  0.03837454  0.54358420  0.95375821     0.16100
F527        F  0.12081057  0.65294906  0.92473206    -0.23300
H528        H  0.09935951  0.63670095  0.84955802     0.18000
C529        C  0.08455896  0.83102523  0.08225080    -0.27300
C530        C  0.05248274  0.81034165  0.06148232     0.06300
C531        C  0.02112871  0.83319811  0.04364281     0.25900
C532        C  0.02263670  0.87561268  0.04574219    -0.11800
C533        C  0.05499745  0.89631261  0.06618911    -0.25700
C534        C  0.08579664  0.87330947  0.08488181     0.36700
C535        C  0.05307554  0.76521552  0.05843468     0.06300
F536        F  0.98846920  0.81466731  0.02505682    -0.19500
H537        H  0.99810631  0.89226556  0.03153205     0.16100
F538        F  0.11759082  0.89147849  0.10524810    -0.23200
H539        H  0.10932007  0.81436279  0.09604404     0.17900
C540        C  0.04711200  0.74497104  0.02060244     0.25900
C541        C  0.05486023  0.70347456  0.01726555    -0.11800
C542        C  0.06937772  0.68176928  0.05119269    -0.25800
C543        C  0.07277338  0.70122402  0.08942983     0.36800
C544        C  0.06428368  0.74234228  0.09303007    -0.27400
F545        F  0.03761018  0.76578833  0.98600975    -0.19600
H546        H  0.05295314  0.68914552  0.98736741     0.16100
F547        F  0.08693248  0.68099694  0.12274629    -0.23300
H548        H  0.06852547  0.75685156  0.12261613     0.18000
C549        C  0.01462903  0.24001109  0.57010995    -0.27300
C550        C  0.05129954  0.26166908  0.56241727     0.06300
C551        C  0.08807455  0.24040384  0.55924117     0.25900
C552        C  0.08813303  0.19833116  0.56512264    -0.11800
C553        C  0.05165719  0.17702853  0.57453748    -0.25700
C554        C  0.01483991  0.19821520  0.57682374     0.36700
C555        C  0.05121706  0.30658416  0.56209372     0.06300
F556        F  0.12406619  0.26054115  0.55200057    -0.19500
H557        H  0.11697798  0.18270691  0.56474019     0.16100
F558        F  0.97981308  0.17922757  0.58956813    -0.23200
H559        H  0.98618605  0.25593116  0.57369489     0.17900
C560        C  0.02592540  0.32774556  0.53487441     0.25900
C561        C  0.02381673  0.36999230  0.53707291    -0.11800
C562        C  0.04658548  0.39204525  0.56671982    -0.25800
C563        C  0.07212866  0.37059760  0.59385220     0.36800
C564        C  0.07438723  0.32840274  0.59134885    -0.27400
F565        F  0.00345885  0.30752299  0.50597100    -0.19600
H566        H  0.00414251  0.38541199  0.51553794     0.16100
F567        F  0.09476992  0.39013303  0.62310508    -0.23300
H568        H  0.09359016  0.31255881  0.61301886     0.18000
C569        C  0.90121695  0.09915562  0.53515144    -0.27300
C570        C  0.87446285  0.07149750  0.55481268     0.06300
C571        C  0.89061430  0.04370778  0.58283603     0.25900
C572        C  0.93223605  0.04571050  0.59331806    -0.11800
C573        C  0.95874918  0.07534087  0.57600870    -0.25700
C574        C  0.94315508  0.10069533  0.54505437     0.36700
C575        C  0.82944638  0.07392442  0.54898603     0.06300
F576        F  0.86562583  0.01635210  0.60210865    -0.19500
H577        H  0.94344145  0.02490071  0.61628730     0.16100
F578        F  0.96754632  0.12867232  0.52608166    -0.23200
H579        H  0.88931535  0.12043247  0.51299557     0.17900
C580        C  0.80848383  0.10779608  0.56325036     0.25900
C581        C  0.76562876  0.10885351  0.56092454    -0.11800
C582        C  0.74272969  0.07634554  0.54389934    -0.25800
C583        C  0.76402231  0.04267253  0.52885924     0.36800
C584        C  0.80689808  0.04146864  0.53177514    -0.27400
F585        F  0.82943838  0.13925787  0.58087251    -0.19600
H586        H  0.75033500  0.13513358  0.57275453     0.16100
F587        F  0.74350700  0.01032303  0.51240778    -0.23300
H588        H  0.82256145  0.01499282  0.52090657     0.18000
C589        C  0.02924177  0.10969899  0.76417474    -0.27300
C590        C  0.05211971  0.07998754  0.78389773     0.06300
C591        C  0.07637331  0.05437057  0.76040118     0.25900
C592        C  0.07721430  0.05797347  0.71770730    -0.11800
C593        C  0.05352676  0.08711558  0.69729282    -0.25700
C594        C  0.02968953  0.11318538  0.72142793     0.36700
C595        C  0.05046951  0.07552644  0.82896493     0.06300
F596        F  0.09951619  0.02585449  0.77883329    -0.19500
H597        H  0.09594067  0.03692686  0.70152536     0.16100
F598        F  0.00591969  0.14153493  0.70354798    -0.23200
H599        H  0.01022288  0.12964371  0.78189450     0.17900
C600        C  0.06046260  0.10840483  0.85463345     0.25900
C601        C  0.06074846  0.10334744  0.89718052    -0.11800
C602        C  0.05049037  0.06563118  0.91488860    -0.25800
C603        C  0.03942158  0.03296001  0.88914858     0.36800
C604        C  0.03968444  0.03793353  0.84650583    -0.27400
F605        F  0.07111916  0.14507365  0.83853342    -0.19600
H606        H  0.06898567  0.12907916  0.91634995     0.16100
F607        F  0.02957049  0.99599544  0.90501789    -0.23300
H608        H  0.03156377  0.01236897  0.82705878     0.18000
C609        C  0.61540588  0.77162594  0.59675633    -0.27300
C610        C  0.58946319  0.78915567  0.56768577     0.09500
C611        C  0.56338448  0.76402241  0.54412649     0.25900
C612        C  0.56286812  0.72198102  0.54993539    -0.11800
C613        C  0.58864462  0.70385548  0.57933910    -0.25700
C614        C  0.61541447  0.72957558  0.60228847     0.36700
C615        C  0.58904672  0.83372043  0.56255366     0.06300
F616        F  0.53774149  0.78030905  0.51595097    -0.19500
H617        H  0.54223612  0.70430460  0.53081392     0.16100
F618        F  0.64175472  0.71396973  0.63024433    -0.23200
H619        H  0.63592035  0.79060654  0.61505573     0.17900
C620        C  0.57376866  0.85830869  0.59381786     0.25900
C621        C  0.57208925  0.90025930  0.58833512    -0.11800
C622        C  0.58624677  0.91870547  0.55182050    -0.25800
C623        C  0.60222928  0.89393167  0.52076948     0.36800
C624        C  0.60318682  0.85180664  0.52605359    -0.27400
F625        F  0.55971748  0.84160803  0.62936067    -0.19600
H626        H  0.55991876  0.91837908  0.61296839     0.16100
F627        F  0.61633665  0.91020160  0.48507164    -0.23300
H628        H  0.61513256  0.83320577  0.50167570     0.18000
C629        C  0.73910823  0.57343300  0.54400672    -0.27300
C630        C  0.75472835  0.55120362  0.57702288     0.06300
C631        C  0.72870712  0.54004551  0.60959595     0.25900
C632        C  0.68824264  0.55320175  0.61016656    -0.11800
C633        C  0.67381649  0.57877258  0.57905972    -0.25700
C634        C  0.69902667  0.58726945  0.54496500     0.36700
C635        C  0.79924385  0.54469257  0.57935068     0.06300
F636        F  0.74294815  0.51784153  0.64151809    -0.19500
H637        H  0.66908529  0.54530411  0.63610709     0.16100
F638        F  0.68536643  0.60998652  0.51315114    -0.23200
H639        H  0.75876140  0.58208156  0.51855115     0.17900
C640        C  0.81942811  0.52330181  0.54853042     0.25900
C641        C  0.86227136  0.52293725  0.54770939    -0.11800
C642        C  0.88565471  0.54448343  0.57721803    -0.25800
C643        C  0.86513877  0.56463151  0.60900547     0.36800
C644        C  0.82233349  0.56449547  0.61001509    -0.27400
F645        F  0.79766993  0.50358255  0.51875631    -0.19600
H646        H  0.87711610  0.50689134  0.52309810     0.16100
F647        F  0.88624355  0.58512301  0.63872575    -0.23300
H648        H  0.80713226  0.58142579  0.63379155     0.18000
C649        C  0.54325351  0.58041356  0.74616270    -0.27300
C650        C  0.57943975  0.57338500  0.76843920     0.06300
C651        C  0.61702507  0.57371748  0.74731745     0.25900
C652        C  0.61845676  0.58246813  0.70517002    -0.11800
C653        C  0.58250984  0.59081745  0.68322566    -0.25700
C654        C  0.54477432  0.58946409  0.70398694     0.36700
C655        C  0.57829294  0.56858251  0.81397534     0.06300
F656        F  0.65248883  0.56643843  0.76771865    -0.19500
H657        H  0.64793522  0.58469337  0.69015097     0.16100
F658        F  0.50962500  0.59825856  0.68371190    -0.23200
H659        H  0.51401349  0.58053502  0.76182256     0.17900
C660        C  0.59932008  0.59648129  0.83945414     0.25900
C661        C  0.59818158  0.59226396  0.88228991    -0.11800
C662        C  0.57593755  0.56020199  0.90097739    -0.25800
C663        C  0.55483451  0.53219368  0.87528200     0.36800
C664        C  0.55590047  0.53658833  0.83230476    -0.27400
F665        F  0.62007847  0.62859101  0.82287737    -0.19600
H666        H  0.61433504  0.61466463  0.90089429     0.16100
F667        F  0.53334762  0.50038445  0.89149786    -0.23300
H668        H  0.53948347  0.51475387  0.81323095     0.18000
loop_ 
_geom_bond_atom_site_label_1 
_geom_bond_atom_site_label_2 
_geom_bond_distance 
_geom_bond_site_symmetry_2 
_ccdc_geom_bond_type 
C1            C2   1.534       .  S
C1            C7   1.538       .  S
C1            C5   1.544       .  S
C1          C613   1.537       .  S
C2            H9   1.086       .  S
C2            C3   1.367       .  D
C3            C4   1.539       .  S
C3          C633   1.482       .  S
C4            C8   1.546       .  S
C4            C6   1.541       .  S
C4           H10   1.111       .  S
C5           H11   1.082       .  S
C5            C6   1.368       .  D
C6           C42   1.483       .  S
C7           H12   1.086       .  S
C7            C8   1.364       .  D
C8          C653   1.486       .  S
C13          C14   1.535       .  S
C13          C19   1.528       .  S
C13          C17   1.534       .  S
C13         C593   1.528       .  S
C14          H21   1.086   1_455  S
C14          C15   1.368       .  D
C15          C16   1.548       .  S
C15         C573   1.497   1_455  S
C16          C20   1.550       .  S
C16          C18   1.550       .  S
C16          H22   1.109       .  S
C17          H23   1.081       .  S
C17          C18   1.364       .  D
C18          C90   1.485       .  S
C19          H24   1.087       .  S
C19          C20   1.362       .  D
C20         C553   1.478       .  S
C25          C26   1.541       .  S
C25          C31   1.530   1_554  S
C25          C29   1.534       .  S
C25         C493   1.529       .  S
C26          H33   1.081       .  S
C26          C27   1.366       .  D
C27          C28   1.544       .  S
C27         C542   1.481       .  S
C28          C32   1.547   1_554  S
C28          C30   1.551       .  S
C28          H34   1.111       .  S
C29          H35   1.087       .  S
C29          C30   1.364       .  D
C30          C66   1.484       .  S
C31          H36   1.087       .  S
C31          C32   1.362       .  D
C32         C522   1.485       .  S
C37          C38   1.531       .  S
C37          C43   1.535       .  S
C37          C41   1.537       .  S
C37         C462   1.525       .  S
C38          H45   1.087       .  S
C38          C39   1.365       .  D
C39          C40   1.547       .  S
C39         C442   1.487       .  S
C40          C44   1.547       .  S
C40          C42   1.551       .  S
C40          H46   1.111       .  S
C41          H47   1.082       .  S
C41          C42   1.364       .  D
C43          H48   1.087       .  S
C43          C44   1.362       .  D
C44         C473   1.487       .  S
C49          C50   1.537       .  S
C49          C55   1.537       .  S
C49          C53   1.527       .  S
C49         C393   1.530       .  S
C50          H57   1.083       .  S
C50          C51   1.368   1_565  D
C51          C52   1.540       .  S
C51         C382   1.477       .  S
C52          C56   1.548       .  S
C52          C54   1.549       .  S
C52          H58   1.111       .  S
C53          H59   1.087       .  S
C53          C54   1.368   1_565  D
C54          C78   1.484       .  S
C55          H60   1.087       .  S
C55          C56   1.360   1_565  D
C56         C413   1.485       .  S
C61          C62   1.540   1_455  S
C61          C67   1.533       .  S
C61          C65   1.535       .  S
C61         C362   1.535       .  S
C62          H69   1.081       .  S
C62          C63   1.363       .  D
C63          C64   1.538   1_655  S
C63         C333   1.474       .  S
C64          C68   1.551       .  S
C64          C66   1.548       .  S
C64          H70   1.110       .  S
C65          H71   1.086       .  S
C65          C66   1.368       .  D
C67          H72   1.086       .  S
C67          C68   1.367       .  D
C68         C322   1.500       .  S
C73          C74   1.530       .  S
C73          C79   1.541       .  S
C73          C77   1.526       .  S
C73         C273   1.528       .  S
C74          H81   1.087       .  S
C74          C75   1.365   1_556  D
C75          C76   1.547       .  S
C75         C262   1.484       .  S
C76          C80   1.550       .  S
C76          C78   1.556       .  S
C76          H82   1.110       .  S
C77          H83   1.087       .  S
C77          C78   1.363   1_556  D
C79          H84   1.080       .  S
C79          C80   1.366   1_556  D
C80         C302   1.497       .  S
C85          C86   1.543       .  S
C85          C91   1.529       .  S
C85          C89   1.528       .  S
C85         C213   1.533       .  S
C86          H93   1.082       .  S
C86          C87   1.366   1_565  D
C87          C88   1.546       .  S
C87         C193   1.488       .  S
C88          C92   1.544       .  S
C88          C90   1.546       .  S
C88          H94   1.110       .  S
C89          H95   1.087       .  S
C89          C90   1.368   1_565  D
C91          H96   1.087       .  S
C91          C92   1.366   1_565  D
C92         C242   1.481       .  S
Zn97        O101   1.953       .  S
Zn97        O102   1.996       .  S
Zn97        O106   1.996   1_554  S
Zn97        O113   2.024       .  S
Zn98        O101   1.975       .  S
Zn98        O103   2.046   1_455  S
Zn98        O105   2.038       .  S
Zn98        O109   2.032       .  S
Zn99        O101   1.967       .  S
Zn99        O104   2.020   1_554  S
Zn99        O107   2.035   1_455  S
Zn99        O110   2.023   1_545  S
Zn100       O101   1.966       .  S
Zn100       O108   2.041   1_545  S
Zn100       O111   2.017       .  S
Zn100       O112   2.059       .  S
O102        C114   1.271       .  A
O103        C115   1.277       .  A
O104        C116   1.274       .  A
O105        C114   1.276       .  A
O106        C116   1.272       .  A
O107        C115   1.275       .  A
O108        C117   1.278       .  A
O109        C118   1.276       .  A
O110        C117   1.275       .  A
O111        C118   1.276       .  A
O112        C119   1.276       .  A
O113        C119   1.274       .  A
C114        C353   1.487       .  S
C115        C422   1.497       .  S
C116        C602   1.475       .  S
C117        C533   1.492       .  S
C118        C233   1.480       .  S
C119        C293   1.494       .  S
Zn120       O124   1.964       .  S
Zn120       O125   2.023       .  S
Zn120       O129   2.019       .  S
Zn120       O136   2.044   1_545  S
Zn121       O124   1.973       .  S
Zn121       O126   2.034       .  S
Zn121       O128   2.041       .  S
Zn121       O132   2.023       .  S
Zn122       O124   1.966       .  S
Zn122       O127   2.008       .  S
Zn122       O130   2.023       .  S
Zn122       O133   2.037       .  S
Zn123       O124   1.950       .  S
Zn123       O131   2.027       .  S
Zn123       O134   1.991       .  S
Zn123       O135   2.009   1_545  S
O125        C137   1.274       .  A
O126        C138   1.276       .  A
O127        C139   1.273       .  A
O128        C137   1.277       .  A
O129        C139   1.276       .  A
O130        C138   1.275       .  A
O131        C140   1.275       .  A
O132        C141   1.274       .  A
O133        C140   1.275       .  A
O134        C141   1.272       .  A
O135        C142   1.272       .  A
O136        C142   1.276       .  A
C137        C582   1.492       .  S
C138        C433   1.488       .  S
C139        C373   1.473       .  S
C140        C202   1.491       .  S
C141        C282   1.477       .  S
C142        C622   1.489       .  S
Zn143       O147   1.959       .  S
Zn143       O148   2.020       .  S
Zn143       O152   1.999       .  S
Zn143       O159   2.004       .  S
Zn144       O147   1.966       .  S
Zn144       O149   2.039       .  S
Zn144       O151   2.048       .  S
Zn144       O155   2.026       .  S
Zn145       O147   1.966       .  S
Zn145       O150   2.018       .  S
Zn145       O153   2.025       .  S
Zn145       O156   2.047   1_554  S
Zn146       O147   1.964       .  S
Zn146       O154   2.036   1_554  S
Zn146       O157   2.018       .  S
Zn146       O158   2.021       .  S
O148        C160   1.272       .  A
O149        C161   1.277       .  A
O150        C162   1.274       .  A
O151        C160   1.276       .  A
O152        C162   1.273       .  A
O153        C161   1.276       .  A
O154        C163   1.276       .  A
O155        C164   1.277       .  A
O156        C163   1.276       .  A
O157        C164   1.276       .  A
O158        C165   1.273       .  A
O159        C165   1.271       .  A
C160        C482   1.491       .  S
C161        C253   1.492       .  S
C162        C502   1.479       .  S
C163        C662   1.498       .  S
C164        C342   1.487       .  S
C165        C402   1.471       .  S
Zn166       O170   1.962       .  S
Zn166       O171   2.023       .  S
Zn166       O175   2.016   1_455  S
Zn166       O182   2.035       .  S
Zn167       O170   1.964       .  S
Zn167       O172   2.023       .  S
Zn167       O174   2.044       .  S
Zn167       O178   2.008       .  S
Zn168       O170   1.963       .  S
Zn168       O173   2.018   1_455  S
Zn168       O176   2.031       .  S
Zn168       O179   2.048       .  S
Zn169       O170   1.949       .  S
Zn169       O177   2.020       .  S
Zn169       O180   2.002       .  S
Zn169       O181   2.002       .  S
O171        C183   1.274       .  A
O172        C184   1.275       .  A
O173        C185   1.276       .  A
O174        C183   1.276       .  A
O175        C185   1.276       .  A
O176        C184   1.276       .  A
O177        C186   1.273       .  A
O178        C187   1.273       .  A
O179        C186   1.277       .  A
O180        C187   1.273       .  A
O181        C188   1.272       .  A
O182        C188   1.275       .  A
C183        C513   1.494       .  S
C184        C562   1.491       .  S
C185        C642   1.482       .  S
C186        C313   1.495       .  S
C187        C453   1.478       .  S
C188        C222   1.486       .  S
C189        C190   1.408       .  A
C189        C194   1.405       .  A
C189        H199   1.083       .  S
C190        C195   1.494       .  S
C190        C191   1.409       .  A
C191        C192   1.399       .  A
C191        F196   1.358       .  S
C192        C193   1.405       .  A
C192        H197   1.083       .  S
C193        C194   1.406       .  A
C194        F198   1.357       .  S
C195        C200   1.409       .  A
C195        C204   1.406       .  A
C200        C201   1.399       .  A
C200        F205   1.358   1_545  S
C201        C202   1.406       .  A
C201        H206   1.083       .  S
C202        C203   1.411       .  A
C203        C204   1.404       .  A
C203        F207   1.357       .  S
C204        H208   1.083       .  S
C209        C210   1.401       .  A
C209        C214   1.399       .  A
C209        H219   1.084       .  S
C210        C215   1.482       .  S
C210        C211   1.404       .  A
C211        C212   1.396       .  A
C211        F216   1.358       .  S
C212        C213   1.412       .  A
C212        H217   1.078       .  S
C213        C214   1.414       .  A
C214        F218   1.358       .  S
C215        C220   1.406       .  A
C215        C224   1.402       .  A
C220        C221   1.402       .  A
C220        F225   1.357       .  S
C221        C222   1.408       .  A
C221        H226   1.083       .  S
C222        C223   1.411       .  A
C223        C224   1.394       .  A
C223        F227   1.358       .  S
C224        H228   1.084       .  S
C229        C230   1.404       .  A
C229        C234   1.395       .  A
C229        H239   1.083       .  S
C230        C235   1.485       .  S
C230        C231   1.409       .  A
C231        C232   1.402       .  A
C231        F236   1.357       .  S
C232        C233   1.405       .  A
C232        H237   1.083       .  S
C233        C234   1.407       .  A
C234        F238   1.358       .  S
C235        C240   1.407       .  A
C235        C244   1.408       .  A
C240        C241   1.392       .  A
C240        F245   1.358   1_545  S
C241        C242   1.403       .  A
C241        H246   1.083   1_545  S
C242        C243   1.405       .  A
C243        C244   1.404       .  A
C243        F247   1.357       .  S
C244        H248   1.083       .  S
C249        C250   1.404       .  A
C249        C254   1.400       .  A
C249        H259   1.083       .  S
C250        C255   1.488       .  S
C250        C251   1.407       .  A
C251        C252   1.402       .  A
C251        F256   1.357       .  S
C252        C253   1.408       .  A
C252        H257   1.083       .  S
C253        C254   1.412       .  A
C254        F258   1.357       .  S
C255        C260   1.410       .  A
C255        C264   1.403       .  A
C260        C261   1.405       .  A
C260        F265   1.357       .  S
C261        C262   1.404       .  A
C261        H266   1.083       .  S
C262        C263   1.407       .  A
C263        C264   1.397       .  A
C263        F267   1.358       .  S
C264        H268   1.083       .  S
C269        C270   1.399       .  A
C269        C274   1.398       .  A
C269        H279   1.084       .  S
C270        C275   1.473       .  S
C270        C271   1.401       .  A
C271        C272   1.391       .  A
C271        F276   1.358       .  S
C272        C273   1.411       .  A
C272        H277   1.076       .  S
C273        C274   1.415       .  A
C274        F278   1.358       .  S
C275        C280   1.405       .  A
C275        C284   1.400       .  A
C280        C281   1.399       .  A
C280        F285   1.357       .  S
C281        C282   1.406       .  A
C281        H286   1.083       .  S
C282        C283   1.409       .  A
C283        C284   1.392       .  A
C283        F287   1.358       .  S
C284        H288   1.084       .  S
C289        C290   1.408       .  A
C289        C294   1.407       .  A
C289        H299   1.083       .  S
C290        C295   1.499       .  S
C290        C291   1.410       .  A
C291        C292   1.401       .  A
C291        F296   1.358       .  S
C292        C293   1.407       .  A
C292        H297   1.083       .  S
C293        C294   1.410       .  A
C294        F298   1.357   1_545  S
C295        C300   1.413       .  A
C295        C304   1.404       .  A
C300        C301   1.411       .  A
C300        F305   1.357       .  S
C301        C302   1.405       .  A
C301        H306   1.083       .  S
C302        C303   1.411       .  A
C303        C304   1.396       .  A
C303        F307   1.358   1_554  S
C304        H308   1.083   1_554  S
C309        C310   1.401       .  A
C309        C314   1.402       .  A
C309        H319   1.083       .  S
C310        C315   1.483       .  S
C310        C311   1.405       .  A
C311        C312   1.404       .  A
C311        F316   1.357   1_455  S
C312        C313   1.409       .  A
C312        H317   1.083   1_455  S
C313        C314   1.414       .  A
C314        F318   1.357       .  S
C315        C320   1.406       .  A
C315        C324   1.400       .  A
C320        C321   1.407       .  A
C320        F325   1.357   1_455  S
C321        C322   1.408       .  A
C321        H326   1.080   1_455  S
C322        C323   1.413       .  A
C323        C324   1.399       .  A
C323        F327   1.357       .  S
C324        H328   1.084       .  S
C329        C330   1.405       .  A
C329        C334   1.398       .  A
C329        H339   1.083       .  S
C330        C335   1.482       .  S
C330        C331   1.407       .  A
C331        C332   1.397       .  A
C331        F336   1.358       .  S
C332        C333   1.401       .  A
C332        H337   1.081       .  S
C333        C334   1.404       .  A
C334        F338   1.358       .  S
C335        C340   1.404       .  A
C335        C344   1.404       .  A
C340        C341   1.400       .  A
C340        F345   1.357       .  S
C341        C342   1.409       .  A
C341        H346   1.083       .  S
C342        C343   1.410       .  A
C343        C344   1.397       .  A
C343        F347   1.357       .  S
C344        H348   1.083       .  S
C349        C350   1.404       .  A
C349        C354   1.399       .  A
C349        H359   1.083   1_455  S
C350        C355   1.482       .  S
C350        C351   1.403       .  A
C351        C352   1.398       .  A
C351        F356   1.358       .  S
C352        C353   1.410       .  A
C352        H357   1.083       .  S
C353        C354   1.409       .  A
C354        F358   1.357   1_455  S
C355        C360   1.402       .  A
C355        C364   1.402       .  A
C360        C361   1.397   1_455  A
C360        F365   1.358   1_455  S
C361        C362   1.413   1_655  A
C361        H366   1.075       .  S
C362        C363   1.414       .  A
C363        C364   1.400       .  A
C363        F367   1.358       .  S
C364        H368   1.083       .  S
C369        C370   1.404       .  A
C369        C374   1.398       .  A
C369        H379   1.083       .  S
C370        C375   1.479       .  S
C370        C371   1.407       .  A
C371        C372   1.395       .  A
C371        F376   1.358       .  S
C372        C373   1.403       .  A
C372        H377   1.084       .  S
C373        C374   1.407       .  A
C374        F378   1.357       .  S
C375        C380   1.404       .  A
C375        C384   1.409       .  A
C380        C381   1.387       .  A
C380        F385   1.358       .  S
C381        C382   1.403       .  A
C381        H386   1.083   1_545  S
C382        C383   1.403       .  A
C383        C384   1.404       .  A
C383        F387   1.357       .  S
C384        H388   1.083       .  S
C389        C390   1.404       .  A
C389        C394   1.395       .  A
C389        H399   1.082       .  S
C390        C395   1.489       .  S
C390        C391   1.408       .  A
C391        C392   1.398       .  A
C391        F396   1.358       .  S
C392        C393   1.410       .  A
C392        H397   1.079       .  S
C393        C394   1.412       .  A
C394        F398   1.358       .  S
C395        C400   1.410       .  A
C395        C404   1.408       .  A
C400        C401   1.398       .  A
C400        F405   1.357   1_554  S
C401        C402   1.401       .  A
C401        H406   1.083       .  S
C402        C403   1.404       .  A
C403        C404   1.397       .  A
C403        F407   1.358       .  S
C404        H408   1.083       .  S
C409        C410   1.404       .  A
C409        C414   1.398       .  A
C409        H419   1.083       .  S
C410        C415   1.493       .  S
C410        C411   1.411       .  A
C411        C412   1.407       .  A
C411        F416   1.357       .  S
C412        C413   1.403       .  A
C412        H417   1.083       .  S
C413        C414   1.407       .  A
C414        F418   1.356       .  S
C415        C420   1.407       .  A
C415        C424   1.405       .  A
C420        C421   1.402       .  A
C420        F425   1.357       .  S
C421        C422   1.408       .  A
C421        H426   1.083       .  S
C422        C423   1.414       .  A
C423        C424   1.405       .  A
C423        F427   1.357       .  S
C424        H428   1.083       .  S
C429        C430   1.405       .  A
C429        C434   1.402       .  A
C429        H439   1.083       .  S
C430        C435   1.490       .  S
C430        C431   1.408       .  A
C431        C432   1.400       .  A
C431        F436   1.358       .  S
C432        C433   1.407       .  A
C432        H437   1.083       .  S
C433        C434   1.410       .  A
C434        F438   1.357       .  S
C435        C440   1.407       .  A
C435        C444   1.407       .  A
C440        C441   1.399       .  A
C440        F445   1.358       .  S
C441        C442   1.406       .  A
C441        H446   1.084       .  S
C442        C443   1.406       .  A
C443        C444   1.402       .  A
C443        F447   1.356       .  S
C444        H448   1.083       .  S
C449        C450   1.400       .  A
C449        C454   1.396       .  A
C449        H459   1.083       .  S
C450        C455   1.469       .  S
C450        C451   1.402       .  A
C451        C452   1.395       .  A
C451        F456   1.358       .  S
C452        C453   1.407       .  A
C452        H457   1.083       .  S
C453        C454   1.410       .  A
C454        F458   1.357       .  S
C455        C460   1.401       .  A
C455        C464   1.397       .  A
C460        C461   1.397       .  A
C460        F465   1.358       .  S
C461        C462   1.411       .  A
C461        H466   1.077       .  S
C462        C463   1.414       .  A
C463        C464   1.393       .  A
C463        F467   1.358       .  S
C464        H468   1.084       .  S
C469        C470   1.403       .  A
C469        C474   1.398       .  A
C469        H479   1.083       .  S
C470        C475   1.491       .  S
C470        C471   1.411       .  A
C471        C472   1.407       .  A
C471        F476   1.357       .  S
C472        C473   1.403       .  A
C472        H477   1.083       .  S
C473        C474   1.408       .  A
C474        F478   1.358       .  S
C475        C480   1.408       .  A
C475        C484   1.404       .  A
C480        C481   1.403       .  A
C480        F485   1.357       .  S
C481        C482   1.406       .  A
C481        H486   1.083       .  S
C482        C483   1.411       .  A
C483        C484   1.403       .  A
C483        F487   1.358       .  S
C484        H488   1.083       .  S
C489        C490   1.400       .  A
C489        C494   1.396       .  A
C489        H499   1.083       .  S
C490        C495   1.479       .  S
C490        C491   1.404       .  A
C491        C492   1.396       .  A
C491        F496   1.358       .  S
C492        C493   1.411       .  A
C492        H497   1.076       .  S
C493        C494   1.413       .  A
C494        F498   1.358       .  S
C495        C500   1.405       .  A
C495        C504   1.404       .  A
C500        C501   1.394       .  A
C500        F505   1.357       .  S
C501        C502   1.406       .  A
C501        H506   1.083       .  S
C502        C503   1.409       .  A
C503        C504   1.398       .  A
C503        F507   1.358   1_554  S
C504        H508   1.083   1_554  S
C509        C510   1.404       .  A
C509        C514   1.404       .  A
C509        H519   1.083       .  S
C510        C515   1.486       .  S
C510        C511   1.404       .  A
C511        C512   1.401       .  A
C511        F516   1.357       .  S
C512        C513   1.410       .  A
C512        H517   1.083       .  S
C513        C514   1.411       .  A
C514        F518   1.357       .  S
C515        C520   1.409       .  A
C515        C524   1.402       .  A
C520        C521   1.406       .  A
C520        F525   1.357       .  S
C521        C522   1.403       .  A
C521        H526   1.083       .  S
C522        C523   1.408       .  A
C523        C524   1.398       .  A
C523        F527   1.358       .  S
C524        H528   1.084       .  S
C529        C530   1.408       .  A
C529        C534   1.399       .  A
C529        H539   1.083       .  S
C530        C535   1.495       .  S
C530        C531   1.408       .  A
C531        C532   1.403       .  A
C531        F536   1.357   1_455  S
C532        C533   1.410       .  A
C532        H537   1.083   1_455  S
C533        C534   1.409       .  A
C534        F538   1.357       .  S
C535        C540   1.413       .  A
C535        C544   1.407       .  A
C540        C541   1.404       .  A
C540        F545   1.357   1_554  S
C541        C542   1.402       .  A
C541        H546   1.084   1_554  S
C542        C543   1.404       .  A
C543        C544   1.397       .  A
C543        F547   1.358       .  S
C544        H548   1.083       .  S
C549        C550   1.403       .  A
C549        C554   1.398       .  A
C549        H559   1.083   1_455  S
C550        C555   1.484       .  S
C550        C551   1.408       .  A
C551        C552   1.403       .  A
C551        F556   1.357       .  S
C552        C553   1.403       .  A
C552        H557   1.083       .  S
C553        C554   1.406       .  A
C554        F558   1.357   1_455  S
C555        C560   1.404       .  A
C555        C564   1.403       .  A
C560        C561   1.401       .  A
C560        F565   1.357       .  S
C561        C562   1.409       .  A
C561        H566   1.083       .  S
C562        C563   1.412       .  A
C563        C564   1.400       .  A
C563        F567   1.357       .  S
C564        H568   1.083       .  S
C569        C570   1.404       .  A
C569        C574   1.404       .  A
C569        H579   1.083       .  S
C570        C575   1.484       .  S
C570        C571   1.403       .  A
C571        C572   1.398       .  A
C571        F576   1.358       .  S
C572        C573   1.410       .  A
C572        H577   1.083       .  S
C573        C574   1.410       .  A
C574        F578   1.355       .  S
C575        C580   1.405       .  A
C575        C584   1.402       .  A
C580        C581   1.401       .  A
C580        F585   1.357       .  S
C581        C582   1.407       .  A
C581        H586   1.083       .  S
C582        C583   1.414       .  A
C583        C584   1.403       .  A
C583        F587   1.357       .  S
C584        H588   1.083       .  S
C589        C590   1.400       .  A
C589        C594   1.396       .  A
C589        H599   1.083       .  S
C590        C595   1.475       .  S
C590        C591   1.401       .  A
C591        C592   1.395       .  A
C591        F596   1.358       .  S
C592        C593   1.412       .  A
C592        H597   1.075       .  S
C593        C594   1.414       .  A
C594        F598   1.358       .  S
C595        C600   1.403       .  A
C595        C604   1.404       .  A
C600        C601   1.394       .  A
C600        F605   1.358       .  S
C601        C602   1.406       .  A
C601        H606   1.083       .  S
C602        C603   1.407       .  A
C603        C604   1.397       .  A
C603        F607   1.357   1_545  S
C604        H608   1.083       .  S
C609        C610   1.400       .  A
C609        C614   1.400       .  A
C609        H619   1.084       .  S
C610        C615   1.482       .  S
C610        C611   1.402       .  A
C611        C612   1.401       .  A
C611        F616   1.357       .  S
C612        C613   1.413       .  A
C612        H617   1.077       .  S
C613        C614   1.416       .  A
C614        F618   1.358       .  S
C615        C620   1.403       .  A
C615        C624   1.404       .  A
C620        C621   1.399       .  A
C620        F625   1.358       .  S
C621        C622   1.409       .  A
C621        H626   1.083       .  S
C622        C623   1.410       .  A
C623        C624   1.403       .  A
C623        F627   1.357       .  S
C624        H628   1.083       .  S
C629        C630   1.401       .  A
C629        C634   1.395       .  A
C629        H639   1.083       .  S
C630        C635   1.474       .  S
C630        C631   1.404       .  A
C631        C632   1.399       .  A
C631        F636   1.357       .  S
C632        C633   1.404       .  A
C632        H637   1.080       .  S
C633        C634   1.408       .  A
C634        F638   1.358       .  S
C635        C640   1.402       .  A
C635        C644   1.402       .  A
C640        C641   1.398       .  A
C640        F645   1.357       .  S
C641        C642   1.408       .  A
C641        H646   1.083       .  S
C642        C643   1.410       .  A
C643        C644   1.396       .  A
C643        F647   1.358       .  S
C644        H648   1.084       .  S
C649        C650   1.406       .  A
C649        C654   1.405       .  A
C649        H659   1.083       .  S
C650        C655   1.491       .  S
C650        C651   1.408       .  A
C651        C652   1.402       .  A
C651        F656   1.357       .  S
C652        C653   1.403       .  A
C652        H657   1.081       .  S
C653        C654   1.406       .  A
C654        F658   1.357       .  S
C655        C660   1.406       .  A
C655        C664   1.405       .  A
C660        C661   1.401       .  A
C660        F665   1.358       .  S
C661        C662   1.409       .  A
C661        H666   1.083       .  S
C662        C663   1.413       .  A
C663        C664   1.406       .  A
C663        F667   1.357       .  S
C664        H668   1.083       .  S
