geometry optimzed in LAMMPS
_audit_creation_date              2020-11-30 
_audit_creation_method            'lammps2cif' 
_symmetry_space_group_name_H-M    'P1' 
_symmetry_Int_Tables_number       1 
_symmetry_cell_setting            triclinic 
loop_ 
_symmetry_equiv_pos_as_xyz 
  x,y,z 
_cell_length_a                    41.29390785 
_cell_length_b                    46.81302194775415 
_cell_length_c                    24.342748074979944 
_cell_angle_alpha                 90.0979997875234 
_cell_angle_beta                  90.43299028726774 
_cell_angle_gamma                 90.4091172790768 
loop_ 
_atom_site_label 
_atom_site_type_symbol 
_atom_site_fract_x 
_atom_site_fract_y 
_atom_site_fract_z 
_atom_site_charge 
C1          C  0.80685581  0.22134803  0.21784769     0.86300
C2          C  0.78964716  0.24081095  0.17549985    -0.53900
C3          C  0.77458981  0.26424192  0.19768295     0.09300
C4          C  0.77823366  0.26584192  0.26032566     0.20200
C5          C  0.82971143  0.24137236  0.25070050    -0.54600
C6          C  0.81478595  0.26479661  0.27206302     0.09400
C7          C  0.77952799  0.21404988  0.25868706    -0.54200
C8          C  0.76465030  0.23729916  0.28002953     0.09900
H9          H  0.78754818  0.23494595  0.13250372     0.14500
H10         H  0.76651042  0.28446252  0.27995130     0.00200
H11         H  0.85542112  0.23747193  0.25617561     0.14800
H12         H  0.77127503  0.19295213  0.27006396     0.14500
C13         C  0.81564649  0.22254978  0.78708421     0.86300
C14         C  0.79136164  0.20986239  0.74491542    -0.53900
C15         C  0.77240559  0.22968321  0.71899547     0.09300
C16         C  0.77944262  0.26051722  0.73778601     0.20200
C17         C  0.83492576  0.24527645  0.75567543    -0.54600
C18         C  0.81626438  0.26506067  0.72914646     0.09400
C19         C  0.79331761  0.23954450  0.82564015    -0.54200
C20         C  0.77446114  0.25929080  0.80000554     0.09900
H21         H  0.78747832  0.18715340  0.73897937     0.14500
H22         H  0.76392294  0.27685909  0.71812375     0.00200
H23         H  0.86120514  0.24570598  0.75502162     0.14800
H24         H  0.79079312  0.23499720  0.86914194     0.14500
O25         O  0.79605585  0.41754408  0.45263294    -0.85500
O26         O  0.83065943  0.36966962  0.42880519    -0.82500
C27         C  0.85354884  0.35219482  0.42469496     0.98000
O28         O  0.87740588  0.35327767  0.45791542    -0.82600
O29         O  0.91159816  0.40253981  0.43106401    -0.85200
C30         C  0.91322372  0.42867527  0.41795717     1.02500
O31         O  0.89948163  0.44735668  0.44719447    -0.78000
O32         O  0.83463719  0.44576230  0.42398720    -0.78200
C33         C  0.80594044  0.43665922  0.42050388     1.02400
O34         O  0.80617369  0.40822786  0.56592475    -0.85500
O35         O  0.83362668  0.35598855  0.54325621    -0.82600
C36         C  0.85595226  0.35401755  0.57857790     0.98000
O37         O  0.88165003  0.36864915  0.57372471    -0.82600
O38         O  0.92020448  0.41579891  0.54826802    -0.85200
C39         C  0.91033864  0.43697184  0.57611884     1.02500
O40         O  0.88387699  0.44859942  0.56356334    -0.78000
O41         O  0.81920952  0.45123761  0.53762340    -0.78200
C42         C  0.80243029  0.43493947  0.56784314     1.02400
Cr43       Cr  0.82013029  0.38925942  0.49770349     1.93700
Cr44       Cr  0.89480053  0.38683755  0.50241695     1.93200
Cr45       Cr  0.85952704  0.44499731  0.49369359     1.39100
O46         O  0.85830325  0.40711800  0.49813895    -1.23200
O47         O  0.79318621  0.06799501  0.03114143    -0.85500
O48         O  0.82932465  0.11226584  0.07097058    -0.82500
C49         C  0.85306013  0.12822152  0.08243557     0.98000
O50         O  0.87845805  0.12759944  0.05304858    -0.82600
O51         O  0.90693866  0.07478452  0.07153805    -0.85200
C52         C  0.90823479  0.04784976  0.07489294     1.02500
O53         O  0.89403274  0.03277326  0.03890606    -0.78000
O54         O  0.82887965  0.03787707  0.06233189    -0.78200
C55         C  0.80079313  0.04824297  0.06388402     1.02400
O56         O  0.80857609  0.08409107  0.92236258    -0.85500
O57         O  0.83928312  0.13323638  0.96246666    -0.82600
C58         C  0.86329196  0.13588883  0.93110748     0.98000
O59         O  0.88672277  0.11883281  0.93479983    -0.82600
O60         O  0.91854864  0.06797578  0.95355712    -0.85200
C61         C  0.90751462  0.04916916  0.92037649     1.02500
O62         O  0.87906193  0.03974979  0.92506840    -0.78000
O63         O  0.81461484  0.03918647  0.94645251    -0.78200
C64         C  0.80218820  0.05789355  0.91554312     1.02400
Cr65       Cr  0.82063270  0.09795658  0.99661835     1.93700
Cr66       Cr  0.89487514  0.09592019  0.00287447     1.93200
Cr67       Cr  0.85446379  0.04039575  0.99363495     1.39100
O68         O  0.85686471  0.07810295  0.99737342    -1.23200
C69         C  0.99141052  0.49501562  0.74802362    -0.02600
O70         O  0.18785978  0.42127067  0.02898545    -0.85500
O71         O  0.15288631  0.37478341  0.06573765    -0.82500
C72         C  0.12991590  0.35742242  0.07354641     0.98000
O73         O  0.10555411  0.35668208  0.04129393    -0.82600
O74         O  0.07167792  0.40575768  0.06371190    -0.85200
C75         C  0.06947913  0.43229738  0.07212372     1.02500
O76         O  0.08425367  0.44964922  0.04107146    -0.78000
O77         O  0.15011150  0.44825760  0.06252303    -0.78200
C78         C  0.17930847  0.44050687  0.06186896     1.02400
O79         O  0.17226600  0.40585981  0.91953958    -0.85500
O80         O  0.14568555  0.35523235  0.95615308    -0.82600
C81         C  0.12344708  0.35277418  0.92087079     0.98000
O82         O  0.09835536  0.36787587  0.92418844    -0.82600
O83         O  0.06102070  0.41534300  0.94679915    -0.85200
C84         C  0.07029503  0.43629501  0.91773061     1.02500
O85         O  0.09765227  0.44767795  0.92586981    -0.78000
O86         O  0.16242615  0.44986417  0.94584565    -0.78200
C87         C  0.17573521  0.43244971  0.91317562     1.02400
Cr88       Cr  0.16148573  0.39059909  0.99276182     1.93700
Cr89       Cr  0.08697553  0.38799176  0.99385933     1.93200
Cr90       Cr  0.12347393  0.44590893  0.99396884     1.39100
O91         O  0.12367837  0.40826679  0.99335532    -1.23200
O92         O  0.16410064  0.08475537  0.43393693    -0.85500
O93         O  0.13304294  0.13452824  0.46324780    -0.82500
C94         C  0.11515842  0.13371284  0.42147814     0.98000
O95         O  0.09058861  0.11739226  0.42132772    -0.82600
O96         O  0.05462141  0.06827726  0.44543089    -0.85200
C97         C  0.06660643  0.04759537  0.41905562     1.02500
O98         O  0.09410177  0.03801849  0.43197513    -0.78000
O99         O  0.15796567  0.04071591  0.46297322    -0.78200
C100        C  0.17117737  0.05868083  0.43127992     1.02400
O101        O  0.17559909  0.07357421  0.54604524    -0.85500
O102        O  0.13529042  0.11777417  0.57386892    -0.82600
C103        C  0.11111065  0.13409155  0.57522892     0.98000
O104        O  0.08916053  0.13273851  0.53843946    -0.82600
O105        O  0.05816535  0.08168249  0.56074036    -0.85200
C106        C  0.05862462  0.05534749  0.57231435     1.02500
O107        O  0.07508869  0.03796887  0.54449001    -0.78000
O108        O  0.13907393  0.04418046  0.57677056    -0.78200
C109        C  0.16688507  0.05543225  0.58097305     1.02400
Cr110      Cr  0.14924468  0.10112972  0.50393741     1.93700
Cr111      Cr  0.07582448  0.09870535  0.49185741     1.93200
Cr112      Cr  0.11613537  0.04311977  0.50379131     1.39100
O113        O  0.11338736  0.08076856  0.50008243    -1.23200
C114        C  0.15845969  0.21779682  0.72316479     0.86300
C115        C  0.17682494  0.20370488  0.77115691    -0.53900
C116        C  0.19743670  0.22160989  0.79856759     0.09300
C117        C  0.19765446  0.25236191  0.77642503     0.20200
C118        C  0.14153914  0.24359364  0.74856322    -0.54600
C119        C  0.16176176  0.26179108  0.77669096     0.09400
C120        C  0.18603021  0.23041339  0.68821754    -0.54200
C121        C  0.20636196  0.24883158  0.71551653     0.09900
H122        H  0.17649585  0.18106624  0.78016928     0.14500
H123        H  0.21433712  0.26677611  0.79930925     0.00200
H124        H  0.11563096  0.24699725  0.74481021     0.14800
H125        H  0.18930692  0.22510780  0.64517498     0.14500
C126        C  0.16125921  0.22527415  0.28113823     0.86300
C127        C  0.17930042  0.24272154  0.32547542    -0.53900
C128        C  0.19872993  0.26396360  0.30593682     0.09300
C129        C  0.19758189  0.26696452  0.24331587     0.20200
C130        C  0.14223931  0.24771393  0.24835733    -0.54600
C131        C  0.16129418  0.26936842  0.22836453     0.09400
C132        C  0.18778725  0.21599416  0.24055343    -0.54200
C133        C  0.20724098  0.23749861  0.22181055     0.09900
H134        H  0.17842059  0.23737705  0.36887798     0.14500
H135        H  0.21291723  0.28456048  0.22705612     0.00200
H136        H  0.11675262  0.24669891  0.23887850     0.14800
H137        H  0.19116399  0.19390281  0.22818336     0.14500
C138        C  0.98897667  0.48696186  0.24526748    -0.02600
O139        O  0.29422565  0.33084935  0.56107166    -0.85500
O140        O  0.33172101  0.37822875  0.58854930    -0.82500
C141        C  0.35380783  0.39696136  0.58747637     0.98000
O142        O  0.37628237  0.39582874  0.55236027    -0.82600
O143        O  0.41041472  0.34638489  0.57242001    -0.85200
C144        C  0.41264953  0.31996530  0.58252233     1.02500
O145        O  0.39726938  0.30178473  0.55374335    -0.78000
O146        O  0.33295503  0.30225650  0.58624061    -0.78200
C147        C  0.30391338  0.31027404  0.58986289     1.02400
O148        O  0.30050492  0.34459681  0.44882301    -0.85500
O149        O  0.33036287  0.39546780  0.47793464    -0.82600
C150        C  0.34905144  0.39822177  0.43782910     0.98000
O151        O  0.37404385  0.38274457  0.43571285    -0.82600
O152        O  0.41310925  0.33552447  0.45361193    -0.85200
C153        C  0.40124763  0.31509384  0.42551396     1.02500
O154        O  0.37524380  0.30328709  0.44016269    -0.78000
O155        O  0.31289762  0.30092199  0.47317675    -0.78200
C156        C  0.29676207  0.31794408  0.44337850     1.02400
Cr157      Cr  0.31729572  0.36085612  0.51877949     1.93700
Cr158      Cr  0.39084548  0.36334526  0.50426183     1.93200
Cr159      Cr  0.35494017  0.30514366  0.51336799     1.39100
O160        O  0.35458028  0.34296749  0.51228681    -1.23200
O161        O  0.31038033  0.15814087  0.94407865    -0.85500
O162        O  0.34622005  0.11193925  0.98018785    -0.82500
C163        C  0.36718269  0.10927813  0.94337068     0.98000
O164        O  0.38996619  0.12742010  0.93958549    -0.82600
O165        O  0.42179341  0.18005367  0.95201679    -0.85200
C166        C  0.40790950  0.19715567  0.91902652     1.02500
O167        O  0.37969015  0.20568246  0.92894774    -0.78000
O168        O  0.31690718  0.20377651  0.96270624    -0.78200
C169        C  0.30259122  0.18393016  0.93671338     1.02400
O170        O  0.30248822  0.17519801  0.05394628    -0.85500
O171        O  0.34440461  0.13367644  0.08856705    -0.82600
C172        C  0.36902507  0.11805402  0.09326455     0.98000
O173        O  0.39130571  0.11921638  0.05769683    -0.82600
O174        O  0.41712629  0.17352417  0.07185308    -0.85200
C175        C  0.41591392  0.20044220  0.07627246     1.02500
O176        O  0.40108944  0.21464300  0.04000821    -0.78000
O177        O  0.33686928  0.20920212  0.07419881    -0.78200
C178        C  0.30921249  0.19780879  0.07957019     1.02400
Cr179      Cr  0.32876596  0.14633677  0.01605011     1.93700
Cr180      Cr  0.40232430  0.15148945  0.00530701     1.93200
Cr181      Cr  0.35932589  0.20532686  0.00199436     1.39100
O182        O  0.36354178  0.16778170  0.00746668    -1.23200
C183        C  0.31540171  0.02292014  0.79773499     0.86300
C184        C  0.29372522  0.00093465  0.82814500    -0.53900
C185        C  0.27658613  0.48602702  0.79118059     0.09300
C186        C  0.28022701  0.49291074  0.73035285     0.20200
C187        C  0.33527203  0.00504723  0.75774679    -0.54600
C188        C  0.31684236  0.49168805  0.71980877     0.09400
C189        C  0.29050017  0.03914719  0.76198096    -0.54200
C190        C  0.27197729  0.02204637  0.72792313     0.09900
H191        H  0.28914641  0.00066110  0.87185502     0.14500
H192        H  0.26603052  0.47817890  0.70358182     0.00200
H193        H  0.36156752  0.00530970  0.75688340     0.14800
H194        H  0.28651898  0.06185107  0.76699121     0.14500
C195        C  0.31889899  0.02964739  0.22617449     0.86300
C196        C  0.29440765  0.04229715  0.26692429    -0.53900
C197        C  0.27325624  0.02311208  0.28783056     0.09300
C198        C  0.27870669  0.49300861  0.26582164     0.20200
C199        C  0.33497662  0.00488632  0.25761595    -0.54600
C200        C  0.31481313  0.48643264  0.27747344     0.09400
C201        C  0.29672340  0.01499720  0.18277426    -0.54200
C202        C  0.27537711  0.49638993  0.20330862     0.09900
H203        H  0.29161592  0.06466919  0.27671538     0.14500
H204        H  0.26187338  0.47685966  0.28280408     0.00200
H205        H  0.36152484  0.50629381  0.26345357     0.14800
H206        H  0.29730989  0.02053438  0.13949442     0.14500
C207        C  0.48485517  0.25400913  0.74843129    -0.02600
C208        C  0.65726835  0.02264639  0.70446406     0.86300
C209        C  0.68081614  0.00716902  0.66590962    -0.53900
C210        C  0.70049769  0.48880588  0.69192583     0.09300
C211        C  0.69408760  0.48535161  0.75357228     0.20200
C212        C  0.63904931  0.99795696  0.73342445    -0.54600
C213        C  0.65731904  0.47881610  0.75752779     0.09400
C214        C  0.67860199  0.03541457  0.75054856    -0.54200
C215        C  0.69900815  0.01674451  0.77516882     0.09900
H216        H  0.68233346  0.01152672  0.62214551     0.14500
H217        H  0.71018654  0.46978339  0.77410739     0.00200
H218        H  0.61217469  0.49778431  0.73333587     0.14800
H219        H  0.67912881  0.05810834  0.76002541     0.14500
O220        O  0.66030083  0.16886825  0.57023751    -0.85500
O221        O  0.63328841  0.11901767  0.52597052    -0.82500
C222        C  0.61308071  0.11557039  0.56355022     0.98000
O223        O  0.58731533  0.13001782  0.56281694    -0.82600
O224        O  0.55021652  0.17845537  0.54549862    -0.85200
C225        C  0.56141484  0.19634654  0.58033975     1.02500
O226        O  0.58819510  0.20852425  0.57218365    -0.78000
O227        O  0.65179443  0.21349625  0.54767104    -0.78200
C228        C  0.66534920  0.19520417  0.57826337     1.02400
O229        O  0.67390839  0.18714163  0.46223652    -0.85500
O230        O  0.63887074  0.14192804  0.42050159    -0.82600
C231        C  0.61816897  0.12221835  0.41409803     0.98000
O232        O  0.59312479  0.12156040  0.44424048    -0.82600
O233        O  0.56016695  0.17227985  0.42622580    -0.85200
C234        C  0.55757000  0.19911686  0.42302571     1.02500
O235        O  0.57061832  0.21504015  0.45904560    -0.78000
O236        O  0.63579167  0.21520879  0.43227814    -0.78200
C237        C  0.66479721  0.20686785  0.43094231     1.02400
Cr238      Cr  0.64883087  0.15543627  0.49504111     1.93700
Cr239      Cr  0.57506761  0.15219637  0.49467652     1.93200
Cr240      Cr  0.61128652  0.21029986  0.50217369     1.39100
O241        O  0.61146647  0.17272733  0.49731903    -1.23200
C242        C  0.66287731  0.02360505  0.28757954     0.86300
C243        C  0.68336867  0.03392472  0.23893953    -0.53900
C244        C  0.69974227  0.01296616  0.21256547     0.09300
C245        C  0.69427196  0.48351224  0.23341068     0.20200
C246        C  0.63983355  0.00118624  0.26124886    -0.54600
C247        C  0.65693962  0.48155949  0.22967941     0.09400
C248        C  0.68601423  0.00601083  0.32348164    -0.54200
C249        C  0.70253702  0.48713531  0.29450111     0.09900
H250        H  0.68619803  0.05632923  0.22830847     0.14500
H251        H  0.70712819  0.46560694  0.21322974     0.00200
H252        H  0.61530880  0.50657486  0.25147025     0.14800
H253        H  0.69090989  0.01101764  0.36637369     0.14500
O254        O  0.68039393  0.33097381  0.95791551    -0.85500
O255        O  0.64305368  0.37452291  0.92078234    -0.82500
C256        C  0.62001897  0.39146309  0.91242429     0.98000
O257        O  0.59642444  0.39201560  0.94553950    -0.82600
O258        O  0.56560522  0.33991275  0.92965416    -0.85200
C259        C  0.56317978  0.31305388  0.92557885     1.02500
O260        O  0.57800376  0.29732704  0.95980160    -0.78000
O261        O  0.64346589  0.30004385  0.93237533    -0.78200
C262        C  0.67180732  0.31023835  0.92806483     1.02400
O263        O  0.67004359  0.34830685  0.06724683    -0.85500
O264        O  0.63893586  0.39688132  0.02915300    -0.82600
C265        C  0.61707284  0.39999054  0.06445004     0.98000
O266        O  0.59291210  0.38327193  0.06426741    -0.82600
O267        O  0.55741791  0.33351670  0.04701949    -0.85200
C268        C  0.56780849  0.31518013  0.08102684     1.02500
O269        O  0.59552482  0.30441182  0.07450762    -0.78000
O270        O  0.66051846  0.30315012  0.04687395    -0.78200
C271        C  0.67586733  0.32211267  0.07391045     1.02400
Cr272      Cr  0.65495920  0.36126096  0.99419703     1.93700
Cr273      Cr  0.58092369  0.36068290  0.99685311     1.93200
Cr274      Cr  0.61908726  0.30418175  0.00312977     1.39100
O275        O  0.61818580  0.34191698  0.99847027    -1.23200
C276        C  0.48414397  0.26488530  0.25533928    -0.02600
C277        C  0.50778552  0.28360124  0.21740367    -0.00300
C278        C  0.49470557  0.29996666  0.17352089    -0.12200
C279        C  0.51319402  0.31020048  0.12944800     0.01900
C280        C  0.54693545  0.30580361  0.12826556    -0.00400
C281        C  0.56120769  0.29339833  0.17485315    -0.12100
C282        C  0.54264450  0.28378148  0.21982259     0.01800
H283        H  0.46986358  0.30628833  0.17371925     0.14800
H284        H  0.58741145  0.29217572  0.17719370     0.14800
C285        C  0.56118302  0.27830524  0.26913565     0.36500
C286        C  0.49624950  0.32473282  0.08561029     0.36400
N287        N  0.57692460  0.27452658  0.30797432    -0.43900
N288        N  0.48257847  0.33634546  0.05058931    -0.43900
C289        C  0.64110869  0.46259792  0.18821706    -0.00300
C290        C  0.64758995  0.46796154  0.13283073    -0.12200
C291        C  0.63764968  0.44894969  0.09164233     0.01900
C292        C  0.62114075  0.42336945  0.10555292    -0.00400
C293        C  0.61282543  0.41879005  0.16086535    -0.12100
C294        C  0.62272786  0.43821107  0.20217636     0.01800
H295        H  0.66142444  0.48675798  0.12176262     0.14800
H296        H  0.60029004  0.39927532  0.17225636     0.14800
C297        C  0.61549792  0.43189093  0.25873343     0.36500
C298        C  0.64528856  0.45614627  0.03542316     0.36400
N299        N  0.60979234  0.42681103  0.30415974    -0.43900
N300        N  0.65148267  0.46199124  0.99050696    -0.43900
C301        C  0.53817835  0.21326722  0.37908611    -0.00300
C302        C  0.52187023  0.23793772  0.39431046    -0.12200
C303        C  0.50812068  0.25608416  0.35558315     0.01900
C304        C  0.50486347  0.24762215  0.29903368    -0.00400
C305        C  0.52417214  0.22400677  0.28328086    -0.12100
C306        C  0.54018461  0.20668958  0.32255183     0.01800
H307        H  0.52249163  0.24463339  0.43707745     0.14800
H308        H  0.52632028  0.21879420  0.24007340     0.14800
C309        C  0.55957183  0.18317765  0.30369439     0.36500
C310        C  0.50508161  0.28508363  0.37504891     0.36400
N311        N  0.57521479  0.16435540  0.28859996    -0.43900
N312        N  0.50447023  0.30791421  0.39335216    -0.43900
C313        C  0.62675310  0.09783465  0.37778734    -0.00300
C314        C  0.65967843  0.09466497  0.36585045    -0.12200
C315        C  0.67123648  0.07073805  0.33880461     0.01900
C316        C  0.64951791  0.04921091  0.31940336    -0.00400
C317        C  0.61625912  0.05241085  0.33074564    -0.12100
C318        C  0.60486152  0.07620449  0.36032946     0.01800
H319        H  0.67719003  0.11048874  0.37996941     0.14800
H320        H  0.59898986  0.03623973  0.31796859     0.14800
C321        C  0.57075625  0.07764150  0.37245065     0.36500
C322        C  0.70601145  0.06909838  0.33242085     0.36400
N323        N  0.54341352  0.07862339  0.38232073    -0.43900
N324        N  0.73382514  0.06814489  0.32732024    -0.43900
C325        C  0.64109008  0.04723322  0.67276228    -0.00300
C326        C  0.66347550  0.06717995  0.65192562    -0.12200
C327        C  0.65441287  0.08998129  0.61967903     0.01900
C328        C  0.62145030  0.09417724  0.60617984    -0.00400
C329        C  0.59823762  0.07536696  0.62831671    -0.12100
C330        C  0.60768023  0.05183970  0.66124864     0.01800
H331        H  0.68919308  0.06443743  0.65988057     0.14800
H332        H  0.57291012  0.07821876  0.61775010     0.14800
C333        C  0.58247267  0.03292760  0.67998615     0.36500
C334        C  0.68051072  0.10790200  0.59975421     0.36400
N335        N  0.56149786  0.01821722  0.69416145    -0.43900
N336        N  0.70208750  0.12147575  0.58415050    -0.43900
C337        C  0.64390023  0.45438087  0.79021900    -0.00300
C338        C  0.61675155  0.45884125  0.82402765    -0.12200
C339        C  0.60641525  0.43796705  0.86178084     0.01900
C340        C  0.62325413  0.41187067  0.86586566    -0.00400
C341        C  0.64788398  0.40642137  0.82807493    -0.12100
C342        C  0.65880681  0.42723211  0.79175975     0.01800
H343        H  0.60468465  0.47932465  0.82349655     0.14800
H344        H  0.66036143  0.38608808  0.82908988     0.14800
C345        C  0.68667344  0.41954555  0.75992433     0.36500
C346        C  0.57958211  0.44451246  0.89716816     0.36400
N347        N  0.70965816  0.41152299  0.73805759    -0.43900
N348        N  0.55795039  0.44974569  0.92532363    -0.43900
C349        C  0.50510246  0.23311819  0.71187846    -0.00300
C350        C  0.53929404  0.23231655  0.71509088    -0.12200
C351        C  0.55779032  0.21798505  0.67586749     0.01900
C352        C  0.54260920  0.20490387  0.62982196    -0.00400
C353        C  0.50876181  0.20303258  0.62887351    -0.12100
C354        C  0.49004455  0.21659025  0.66909783     0.01800
H355        H  0.55242646  0.24485784  0.74519816     0.14800
H356        H  0.49670255  0.19253641  0.59454518     0.14800
C357        C  0.45533126  0.21543317  0.66160677     0.36500
C358        C  0.59258043  0.21854532  0.68290579     0.36400
N359        N  0.42760262  0.21430585  0.65464110    -0.43900
N360        N  0.62039480  0.21919427  0.68897561    -0.43900
C361        C  0.50633496  0.26935663  0.79508757    -0.00300
C362        C  0.50986282  0.29966946  0.79650131    -0.12200
C363        C  0.52744079  0.31433528  0.83797087     0.01900
C364        C  0.54286397  0.29920347  0.88087021    -0.00400
C365        C  0.54037653  0.26937491  0.87969474    -0.12100
C366        C  0.52358608  0.25449562  0.83797639     0.01800
H367        H  0.49968723  0.31279727  0.76449685     0.14800
H368        H  0.55291581  0.25713589  0.91103890     0.14800
C369        C  0.52918269  0.22411947  0.83892773     0.36500
C370        C  0.52960472  0.34507632  0.83432057     0.36400
N371        N  0.53569114  0.20013792  0.84171064    -0.43900
N372        N  0.53136537  0.36970925  0.83129888    -0.43900
C373        C  0.45818024  0.23495246  0.77909196    -0.00300
C374        C  0.46652311  0.20740363  0.79878111    -0.12200
C375        C  0.45074714  0.19447765  0.84352823     0.01900
C376        C  0.42484157  0.20853095  0.86920851    -0.00400
C377        C  0.41255482  0.23291787  0.84299941    -0.12100
C378        C  0.42673433  0.24396177  0.79512314     0.01800
H379        H  0.48629489  0.19593906  0.78037542     0.14800
H380        H  0.38965189  0.24164642  0.85637353     0.14800
C381        C  0.40303302  0.25250268  0.75465148     0.36500
C382        C  0.46116445  0.16651644  0.86091620     0.36400
N383        N  0.38311634  0.25834696  0.72297063    -0.43900
N384        N  0.46938441  0.14399958  0.87445319    -0.43900
C385        C  0.43154085  0.21587121  0.12400858    -0.00300
C386        C  0.44839361  0.20063956  0.16482649    -0.12200
C387        C  0.46186055  0.21445639  0.21156060     0.01900
C388        C  0.46302084  0.24504061  0.21471788    -0.00400
C389        C  0.44024330  0.25857456  0.17989497    -0.12100
C390        C  0.42616227  0.24522770  0.13407692     0.01800
H391        H  0.44894313  0.17750928  0.16247016     0.14800
H392        H  0.43192310  0.27975148  0.18967789     0.14800
C393        C  0.40531898  0.26250596  0.09982944     0.36500
C394        C  0.46529657  0.19649347  0.25931991     0.36400
N395        N  0.38873259  0.27647843  0.07251919    -0.43900
N396        N  0.46709036  0.18173934  0.29732675    -0.43900
C397        C  0.33659292  0.04253974  0.83403076    -0.00300
C398        C  0.33894543  0.03746682  0.89060834    -0.12200
C399        C  0.35037243  0.05832719  0.92653661     0.01900
C400        C  0.36337256  0.08427045  0.90624591    -0.00400
C401        C  0.36675531  0.08731618  0.84918547    -0.12100
C402        C  0.35350929  0.06665923  0.81299249     0.01800
H403        H  0.33064363  0.01767313  0.90836163     0.14800
H404        H  0.37741068  0.10671579  0.83278989     0.14800
C405        C  0.35712152  0.07093702  0.75467464     0.36500
C406        C  0.34454517  0.05313508  0.98397402     0.36400
N407        N  0.36040154  0.07410284  0.70790629    -0.43900
N408        N  0.33762772  0.04805987  0.02881875    -0.43900
C409        C  0.34276893  0.05174269  0.20171739    -0.00300
C410        C  0.34397521  0.08018915  0.22147441    -0.12200
C411        C  0.35566972  0.10241115  0.18877429     0.01900
C412        C  0.36913056  0.09626890  0.13733759    -0.00400
C413        C  0.37586687  0.06769041  0.12447501    -0.12100
C414        C  0.36226755  0.04533884  0.15565113     0.01800
H415        H  0.33469527  0.08587519  0.26124758     0.14800
H416        H  0.38857511  0.06277871  0.08685922     0.14800
C417        C  0.36650884  0.01633334  0.13692892     0.36500
C418        C  0.35216839  0.13152720  0.20756960     0.36400
N419        N  0.37040225  0.49522783  0.12261281    -0.43900
N420        N  0.34931392  0.15489092  0.22227708    -0.43900
C421        C  0.41839081  0.30398311  0.37583193    -0.00300
C422        C  0.43755489  0.32228701  0.34350767    -0.12200
C423        C  0.45717031  0.31178469  0.30053584     0.01900
C424        C  0.45809105  0.28175269  0.28933053    -0.00400
C425        C  0.43576166  0.26443165  0.31840043    -0.12100
C426        C  0.41658328  0.27490306  0.36082072     0.01800
H427        H  0.43853174  0.34484132  0.35374620     0.14800
H428        H  0.43517103  0.24162245  0.31109263     0.14800
C429        C  0.39727394  0.25446114  0.39093491     0.36500
C430        C  0.47901863  0.33219125  0.27611083     0.36400
N431        N  0.38187342  0.23801663  0.41496764    -0.43900
N432        N  0.49637886  0.34913718  0.25776937    -0.43900
C433        C  0.47036570  0.27729692  0.70685467    -0.00300
C434        C  0.44535030  0.29609102  0.72270253    -0.12200
C435        C  0.42636430  0.31080915  0.68335860     0.01900
C436        C  0.43431005  0.30941729  0.62717281    -0.00400
C437        C  0.46322697  0.29638228  0.61287357    -0.12100
C438        C  0.48235343  0.28246068  0.65230738     0.01800
H439        H  0.43902421  0.29775698  0.76567364     0.14800
H440        H  0.47143919  0.29782888  0.57070115     0.14800
C441        C  0.51565235  0.27847179  0.63660001     0.36500
C442        C  0.39729069  0.32492691  0.70102295     0.36400
N443        N  0.54220311  0.27652104  0.62222899    -0.43900
N444        N  0.37366777  0.33575321  0.71520967    -0.43900
C445        C  0.34935351  0.42309670  0.61945610    -0.00300
C446        C  0.32818256  0.44345092  0.59761998    -0.12200
C447        C  0.31924348  0.46722667  0.62834449     0.01900
C448        C  0.33101332  0.47044249  0.68237792    -0.00400
C449        C  0.35412355  0.45117512  0.70281248    -0.12100
C450        C  0.36368875  0.42766804  0.67130272     0.01800
H451        H  0.31816262  0.44045697  0.55673461     0.14800
H452        H  0.36371156  0.45384992  0.74411505     0.14800
C453        C  0.38800370  0.40868963  0.69283973     0.36500
C454        C  0.29840131  0.48825071  0.60341802     0.36400
N455        N  0.40801500  0.39397551  0.71014082    -0.43900
N456        N  0.28201845  0.50534280  0.58345973    -0.43900
C457        C  0.34089113  0.42046033  0.39566064    -0.00300
C458        C  0.36099005  0.42537702  0.35000446    -0.12200
C459        C  0.35318331  0.44630778  0.31025154     0.01900
C460        C  0.32489637  0.46299124  0.31597726    -0.00400
C461        C  0.30476649  0.45739112  0.36061273    -0.12100
C462        C  0.31216587  0.43692648  0.39996819     0.01800
H463        H  0.38264732  0.41271379  0.34497477     0.14800
H464        H  0.28269952  0.46917277  0.36552156     0.14800
C465        C  0.28893476  0.43376475  0.44383052     0.36500
C466        C  0.37353090  0.44899329  0.26263198     0.36400
N467        N  0.27005514  0.43150549  0.47849569    -0.43900
N468        N  0.38976407  0.45098686  0.22426646    -0.43900
C469        C  0.22358711  0.27817985  0.34081248    -0.00300
C470        C  0.22640767  0.30807175  0.34104860    -0.12200
C471        C  0.25028740  0.32191481  0.37306507     0.01900
C472        C  0.27215778  0.30552470  0.40504168    -0.00400
C473        C  0.26956320  0.27556547  0.40308420    -0.12100
C474        C  0.24577895  0.26191300  0.37176236     0.01800
H475        H  0.20969987  0.32062773  0.31668795     0.14800
H476        H  0.28623053  0.26238970  0.42634415     0.14800
C477        C  0.24613526  0.23105974  0.36990978     0.36500
C478        C  0.25132141  0.35274862  0.37253365     0.36400
N479        N  0.24681868  0.20636281  0.36875929    -0.43900
N480        N  0.25201935  0.37746907  0.37199197    -0.43900
C481        C  0.23367815  0.23175044  0.18214261    -0.00300
C482        C  0.22603215  0.21426454  0.13723413    -0.12200
C483        C  0.24996885  0.20396200  0.10263209     0.01900
C484        C  0.28307434  0.21089446  0.11278594    -0.00400
C485        C  0.29060646  0.23008577  0.15542377    -0.12100
C486        C  0.26624235  0.24069709  0.18988843     0.01800
H487        H  0.20098894  0.20810115  0.12970609     0.14800
H488        H  0.31564737  0.23620096  0.16284156     0.14800
C489        C  0.27592947  0.26001533  0.23317348     0.36500
C490        C  0.23921629  0.18630522  0.05711113     0.36400
N491        N  0.28501228  0.27582414  0.26654865    -0.43900
N492        N  0.23032854  0.17210365  0.02098304    -0.43900
C493        C  0.22247678  0.21062589  0.83660422    -0.00300
C494        C  0.24106825  0.18703472  0.82018505    -0.12200
C495        C  0.26705804  0.17747386  0.85226225     0.01900
C496        C  0.27476950  0.19172894  0.90167902    -0.00400
C497        C  0.25565433  0.21488224  0.91858147    -0.12100
C498        C  0.22963908  0.22432508  0.88671044     0.01800
H499        H  0.23608140  0.17672199  0.78106636     0.14800
H500        H  0.26103020  0.22568039  0.95709586     0.14800
C501        C  0.21056296  0.24787639  0.90661284     0.36500
C502        C  0.28648128  0.15427043  0.83187307     0.36400
N503        N  0.19537425  0.26677524  0.92268207    -0.43900
N504        N  0.30205800  0.13574668  0.81527199    -0.43900
C505        C  0.23244919  0.26488939  0.68631722    -0.00300
C506        C  0.22434812  0.27691217  0.63548871    -0.12200
C507        C  0.24721038  0.29136579  0.60399948     0.01900
C508        C  0.27956393  0.29451305  0.62318341    -0.00400
C509        C  0.28794594  0.28253907  0.67417674    -0.12100
C510        C  0.26467593  0.26802150  0.70604436     0.01800
H511        H  0.19971579  0.27499489  0.61998914     0.14800
H512        H  0.31259564  0.28475643  0.68937805     0.14800
C513        C  0.27502710  0.25612964  0.75778199     0.36500
C514        C  0.23646970  0.30177704  0.55112239     0.36400
N515        N  0.28418817  0.24703421  0.79918769    -0.43900
N516        N  0.22713527  0.30996586  0.50912027    -0.43900
C517        C  0.24383984  0.03207193  0.69367893    -0.00300
C518        C  0.21692577  0.01363850  0.68578542    -0.12200
C519        C  0.19084304  0.02093915  0.65137952     0.01900
C520        C  0.19099172  0.04742787  0.62403015    -0.00400
C521        C  0.21719367  0.06629451  0.63353338    -0.12100
C522        C  0.24346457  0.05888442  0.66706831     0.01800
H523        H  0.21530744  0.49492630  0.70616379     0.14800
H524        H  0.21780072  0.08684253  0.61300435     0.14800
C525        C  0.27027622  0.07879015  0.67005021     0.36500
C526        C  0.16525812  0.00018687  0.64287439     0.36400
N527        N  0.29142872  0.09511560  0.67213833    -0.43900
N528        N  0.14340553  0.48447879  0.63760820    -0.43900
C529        C  0.24665199  0.03224266  0.32361684    -0.00300
C530        C  0.24686576  0.02356543  0.37845506    -0.12200
C531        C  0.22211726  0.03160931  0.41374194     0.01900
C532        C  0.19701676  0.04934986  0.39442163    -0.00400
C533        C  0.19745136  0.05908613  0.34001116    -0.12100
C534        C  0.22200251  0.05055796  0.30437777     0.01800
H535        H  0.26554567  0.51007385  0.39384915     0.14800
H536        H  0.17834624  0.07293861  0.32519036     0.14800
C537        C  0.22079832  0.05992686  0.24788251     0.36500
C538        C  0.22385310  0.02242731  0.47025555     0.36400
N539        N  0.21983379  0.06727917  0.20253607    -0.43900
N540        N  0.22139094  0.51141508  0.51274422    -0.43900
C541        C  0.00903495  0.00729547  0.28847751    -0.00300
C542        C  0.04328007  0.00472219  0.29089008    -0.12200
C543        C  0.06224443  0.01761328  0.33196104     0.01900
C544        C  0.04759162  0.03395597  0.37350345    -0.00400
C545        C  0.01373713  0.03647242  0.37267869    -0.12100
C546        C  0.99452393  0.02295718  0.33225347     0.01800
H547        H  0.05604542  0.99121866  0.26252668     0.14800
H548        H  0.00195283  0.04849504  0.40489530     0.14800
C549        C  0.95987630  0.02614064  0.33714082     0.36500
C550        C  0.09681296  0.01300354  0.33046612     0.36400
N551        N  0.93224783  0.02927985  0.34170217    -0.43900
N552        N  0.12443027  0.00903439  0.32931642    -0.43900
C553        C  0.12427059  0.15272748  0.37533519    -0.00300
C554        C  0.10145129  0.17079762  0.35055020    -0.12200
C555        C  0.11133077  0.19402083  0.31731327     0.01900
C556        C  0.14494975  0.19906796  0.30783262    -0.00400
C557        C  0.16694143  0.17940361  0.33014479    -0.12100
C558        C  0.15734202  0.15680808  0.36285921     0.01800
H559        H  0.07603834  0.16803497  0.36032496     0.14800
H560        H  0.19272048  0.18255231  0.32428517     0.14800
C561        C  0.18314394  0.13953101  0.38512003     0.36500
C562        C  0.08618114  0.21264576  0.29782050     0.36400
N563        N  0.20524436  0.12700127  0.40154190    -0.43900
N564        N  0.06518497  0.22703805  0.28299171    -0.43900
C565        C  0.13567240  0.19822146  0.68991153    -0.00300
C566        C  0.12757475  0.17062056  0.70891303    -0.12200
C567        C  0.11566509  0.14978826  0.67278611     0.01900
C568        C  0.11091071  0.15659505  0.61720228    -0.00400
C569        C  0.11273858  0.18516903  0.60059392    -0.12100
C570        C  0.12426220  0.20619813  0.63696771     0.01800
H571        H  0.13130392  0.16466125  0.75130909     0.14800
H572        H  0.10768258  0.19069023  0.55813563     0.14800
C573        C  0.12611361  0.23532093  0.61761559     0.36500
C574        C  0.10929325  0.12129713  0.69296501     0.36400
N575        N  0.12762690  0.25865681  0.60216781    -0.43900
N576        N  0.10380544  0.09850942  0.70892568    -0.43900
C577        C  0.20408229  0.45439868  0.09776614    -0.00300
C578        C  0.19521562  0.46361902  0.15012657    -0.12200
C579        C  0.21777654  0.47648226  0.18586880     0.01900
C580        C  0.25026816  0.48123880  0.16877269    -0.00400
C581        C  0.25902724  0.47185699  0.11610534    -0.12100
C582        C  0.23656064  0.45843505  0.08092814     0.01800
H583        H  0.17047866  0.46032380  0.16362866     0.14800
H584        H  0.28372546  0.47487413  0.10228888     0.14800
C585        C  0.24747702  0.44994344  0.02711102     0.36500
C586        C  0.20586165  0.48427148  0.23924334     0.36400
N587        N  0.25644770  0.44316757  0.98412366    -0.43900
N588        N  0.19489220  0.48927011  0.28174841    -0.43900
C589        C  0.19823775  0.44372344  0.87144625    -0.00300
C590        C  0.22649729  0.42834924  0.85943646    -0.12200
C591        C  0.25193373  0.44124613  0.83055345     0.01900
C592        C  0.24892064  0.46967669  0.81284688    -0.00400
C593        C  0.21988109  0.48423308  0.82109860    -0.12100
C594        C  0.19445628  0.47146339  0.84959928     0.01800
H595        H  0.22965708  0.40699957  0.87575397     0.14800
H596        H  0.21759297  0.50614311  0.80724619     0.14800
C597        C  0.16505589  0.48757297  0.85673777     0.36500
C598        C  0.28147020  0.42559281  0.82200276     0.36400
N599        N  0.14151280  0.50048982  0.86234817    -0.43900
N600        N  0.30518199  0.41310582  0.81505683    -0.43900
C601        C  0.04938920  0.44426193  0.11803768    -0.00300
C602        C  0.05035533  0.47387328  0.12618151    -0.12200
C603        C  0.03224058  0.48736192  0.16675198     0.01900
C604        C  0.01179809  0.47137175  0.20287175    -0.00400
C605        C  0.01052972  0.44141027  0.19389055    -0.12100
C606        C  0.02934751  0.42788687  0.15318141     0.01800
H607        H  0.06562216  0.48706377  0.10030546     0.14800
H608        H  0.99429117  0.42818528  0.21763593     0.14800
C609        C  0.02723649  0.39719651  0.14845356     0.36500
C610        C  0.03649569  0.51796732  0.16996912     0.36400
N611        N  0.02562547  0.37256374  0.14502191    -0.43900
N612        N  0.04157638  0.54230447  0.17084945    -0.43900
C613        C  0.12826324  0.33187728  0.87644853    -0.00300
C614        C  0.15583328  0.33528766  0.84381108    -0.12200
C615        C  0.16641416  0.31337416  0.80934261     0.01900
C616        C  0.14950639  0.28701925  0.80774446    -0.00400
C617        C  0.12083611  0.28421639  0.83853564    -0.12100
C618        C  0.11015486  0.30638138  0.87271314     0.01800
H619        H  0.16984726  0.35494532  0.84671307     0.14800
H620        H  0.10754903  0.26416098  0.83806537     0.14800
C621        C  0.08205139  0.30172623  0.90654999     0.36500
C622        C  0.19462759  0.31887445  0.77627723     0.36400
N623        N  0.05956214  0.29801455  0.93377990    -0.43900
N624        N  0.21736759  0.32378070  0.75035636    -0.43900
C625        C  0.13329021  0.33609152  0.11766822    -0.00300
C626        C  0.12282712  0.30798220  0.10750300    -0.12200
C627        C  0.13080623  0.28592427  0.14374408     0.01900
C628        C  0.14898677  0.29208917  0.19180078    -0.00400
C629        C  0.15788179  0.32039828  0.20337112    -0.12100
C630        C  0.15018872  0.34238942  0.16694892     0.01800
H631        H  0.11015990  0.30290952  0.06947071     0.14800
H632        H  0.17142448  0.32527667  0.24056583     0.14800
C633        C  0.16006111  0.37117356  0.18105317     0.36500
C634        C  0.12232256  0.25700770  0.12826383     0.36400
N635        N  0.16796016  0.39422920  0.19234550    -0.43900
N636        N  0.11555196  0.23383701  0.11583633    -0.43900
C637        C  0.00989980  0.01379725  0.70818286    -0.00300
C638        C  0.99278178  0.03223048  0.67193522    -0.12200
C639        C  0.00817613  0.04764039  0.62987542     0.01900
C640        C  0.04128723  0.04366685  0.62036370    -0.00400
C641        C  0.05852553  0.02514520  0.65435772    -0.12100
C642        C  0.04373359  0.01001506  0.69686922     0.01800
H643        H  0.96694601  0.03494632  0.67701310     0.14800
H644        H  0.08405705  0.02173624  0.64628412     0.14800
C645        C  0.06786246  0.49397619  0.72560519     0.36500
C646        C  0.98927921  0.06655802  0.59585785     0.36400
N647        N  0.08674472  0.47938824  0.74672483    -0.43900
N648        N  0.97422431  0.08189268  0.56874547    -0.43900
C649        C  0.01320040  0.47844149  0.79048458    -0.00300
C650        C  0.01007759  0.44852613  0.79879960    -0.12200
C651        C  0.02770031  0.43413943  0.84023275     0.01900
C652        C  0.04882401  0.44950775  0.87542719    -0.00400
C653        C  0.05079455  0.47911916  0.86953102    -0.12100
C654        C  0.03333047  0.49360147  0.82912961     0.01800
H655        H  0.99323731  0.43612248  0.77414688     0.14800
H656        H  0.06646568  0.49130856  0.89703524     0.14800
C657        C  0.04007688  0.02392054  0.82438156     0.36500
C658        C  0.02407012  0.40358071  0.84511289     0.36400
N659        N  0.04818963  0.04760060  0.82223178    -0.43900
N660        N  0.02115056  0.37906758  0.84908138    -0.43900
C661        C  0.96543644  0.00736181  0.20643056    -0.00300
C662        C  0.94759205  0.99114988  0.16713674    -0.12200
C663        C  0.92906494  0.00345474  0.12515654     0.01900
C664        C  0.92705003  0.03351867  0.12030340    -0.00400
C665        C  0.94382281  0.05013575  0.15947132    -0.12100
C666        C  0.96307817  0.03784650  0.20133083     0.01800
H667        H  0.94948992  0.46597959  0.16743532     0.14800
H668        H  0.94272322  0.07322905  0.15643790     0.14800
C669        C  0.98115989  0.05810988  0.23425081     0.36500
C670        C  0.91308345  0.98408829  0.08724904     0.36400
N671        N  0.99529205  0.07532054  0.25906841    -0.43900
N672        N  0.90050031  0.96837803  0.05701096    -0.43900
C673        C  0.92812818  0.03678115  0.87658574    -0.00300
C674        C  0.94812505  0.05437535  0.84478110    -0.12200
C675        C  0.96700716  0.04331971  0.80160929     0.01900
C676        C  0.96698719  0.01318016  0.79028872    -0.00400
C677        C  0.94620992  0.99613185  0.82313666    -0.12100
C678        C  0.92703623  0.00735845  0.86470712     0.01800
H679        H  0.94862450  0.07714083  0.85328035     0.14800
H680        H  0.94901816  0.47192000  0.81701075     0.14800
C681        C  0.90720292  0.98770104  0.89577244     0.36500
C682        C  0.98599546  0.06423005  0.77246529     0.36400
N683        N  0.89122995  0.97191266  0.92033360    -0.43900
N684        N  0.00075716  0.08188380  0.75044451    -0.43900
C685        C  0.77690989  0.04879755  0.87644162    -0.00300
C686        C  0.74516577  0.05777643  0.88604539    -0.12200
C687        C  0.71922383  0.04647458  0.85561925     0.01900
C688        C  0.72506210  0.02649386  0.81330485    -0.00400
C689        C  0.75687091  0.01723750  0.80432744    -0.12100
C690        C  0.78271929  0.02804634  0.83576804     0.01800
H691        H  0.74047995  0.07268794  0.91918443     0.14800
H692        H  0.76169024  0.00187370  0.77211832     0.14800
C693        C  0.81500820  0.01790918  0.82497339     0.36500
C694        C  0.68677073  0.05436399  0.87097585     0.36400
N695        N  0.84083228  0.00974745  0.81604649    -0.43900
N696        N  0.66076523  0.06052518  0.88356067    -0.43900
C697        C  0.77545158  0.03713990  0.10143362    -0.00300
C698        C  0.74337279  0.04617108  0.09229967    -0.12200
C699        C  0.71828853  0.03779301  0.12678302     0.01900
C700        C  0.72476143  0.01953956  0.17130348    -0.00400
C701        C  0.75642424  0.00966538  0.17991818    -0.12100
C702        C  0.78185908  0.01852426  0.14589492     0.01800
H703        H  0.73766846  0.06020435  0.05822515     0.14800
H704        H  0.76520481  0.49982907  0.22036484     0.14800
C705        C  0.81423707  0.00925679  0.15938005     0.36500
C706        C  0.68611743  0.04839825  0.11566337     0.36400
N707        N  0.84018064  0.00192489  0.17049689    -0.43900
N708        N  0.66040075  0.05708665  0.10713997    -0.43900
C709        C  0.93139457  0.43826784  0.36795511    -0.00300
C710        C  0.96484913  0.43389919  0.36381201    -0.12200
C711        C  0.98330990  0.44693017  0.32182546     0.01900
C712        C  0.96855278  0.46553437  0.28225125    -0.00400
C713        C  0.93430742  0.46720791  0.28440457    -0.12100
C714        C  0.91609463  0.45392931  0.32577789     0.01800
H715        H  0.97693427  0.42122034  0.39496210     0.14800
H716        H  0.92101399  0.48069405  0.25647155     0.14800
C717        C  0.88138647  0.45687868  0.32293264     0.36500
C718        C  0.01761751  0.44124991  0.32202104     0.36400
N719        N  0.85371674  0.45955631  0.31766068    -0.43900
N720        N  0.04499348  0.43610650  0.32232202    -0.43900
C721        C  0.96975131  0.47539645  0.70865567    -0.00300
C722        C  0.93629146  0.48135642  0.70190778    -0.12200
C723        C  0.91680801  0.46839137  0.66160891     0.01900
C724        C  0.93008253  0.44904790  0.62334203    -0.00400
C725        C  0.96304682  0.44228568  0.62958440    -0.12100
C726        C  0.98276306  0.45516766  0.67071368     0.01800
H727        H  0.92472427  0.49772812  0.72594764     0.14800
H728        H  0.97389177  0.42744995  0.60095621     0.14800
C729        C  0.01646969  0.44735859  0.67109970     0.36500
C730        C  0.88303287  0.47611991  0.66108212     0.36400
N731        N  0.04318016  0.44007394  0.67027603    -0.43900
N732        N  0.85610180  0.48268176  0.66177356    -0.43900
C733        C  0.72711606  0.47481029  0.66210540    -0.00300
C734        C  0.72257428  0.44712979  0.64169829    -0.12200
C735        C  0.74733538  0.43308657  0.61361317     0.01900
C736        C  0.77676989  0.44762955  0.60254507    -0.00400
C737        C  0.78020944  0.47618605  0.61987450    -0.12100
C738        C  0.75591791  0.48967984  0.64993067     0.01800
H739        H  0.69933161  0.43662712  0.64691509     0.14800
H740        H  0.80170352  0.48824256  0.60911984     0.14800
C741        C  0.76046379  0.51917399  0.66592903     0.36500
C742        C  0.74100829  0.40440588  0.59415646     0.36400
N743        N  0.76252830  0.04374185  0.66960281    -0.43900
N744        N  0.73593728  0.38138941  0.57875486    -0.43900
C745        C  0.73055020  0.47331262  0.32175062    -0.00300
C746        C  0.75469928  0.49089821  0.34512142    -0.12200
C747        C  0.78052672  0.47932871  0.37483258     0.01900
C748        C  0.78249937  0.44947692  0.38173364    -0.00400
C749        C  0.75898130  0.43179355  0.35659814    -0.12100
C750        C  0.73329794  0.44345376  0.32623417     0.01800
H751        H  0.75236968  0.01236442  0.34270017     0.14800
H752        H  0.76026752  0.40882052  0.36183036     0.14800
C753        C  0.70932380  0.42445301  0.30248149     0.36500
C754        C  0.80325766  0.49871562  0.40098350     0.36400
N755        N  0.69024959  0.40910631  0.28333566    -0.43900
N756        N  0.82142127  0.51426143  0.42201290    -0.43900
C757        C  0.74409636  0.22168839  0.68372922    -0.00300
C758        C  0.72441927  0.19833596  0.69898917    -0.12200
C759        C  0.69769114  0.18989644  0.66686108     0.01900
C760        C  0.69012228  0.20503352  0.61849843    -0.00400
C761        C  0.70834112  0.22952662  0.60552322    -0.12100
C762        C  0.73551409  0.23753055  0.63659209     0.01800
H763        H  0.72964656  0.18680377  0.73656904     0.14800
H764        H  0.70251492  0.24162907  0.56883081     0.14800
C765        C  0.75506381  0.26097462  0.61669736     0.36500
C766        C  0.67739935  0.16682725  0.68617060     0.36400
N767        N  0.77043708  0.27984428  0.60030675    -0.43900
N768        N  0.66090857  0.14863941  0.70228424    -0.43900
C769        C  0.74816591  0.27435640  0.82932302    -0.00300
C770        C  0.71570517  0.27042269  0.81262818    -0.12200
C771        C  0.69007723  0.28172127  0.84363183     0.01900
C772        C  0.69694186  0.29754728  0.89188803    -0.00400
C773        C  0.72962791  0.30224624  0.90675476    -0.12100
C774        C  0.75495402  0.29074370  0.87648064     0.01800
H775        H  0.71033074  0.25783854  0.77619674     0.14800
H776        H  0.73567219  0.31478125  0.94287591     0.14800
C777        C  0.78783521  0.29626725  0.89449996     0.36500
C778        C  0.65725756  0.27733061  0.82442292     0.36400
N779        N  0.81417886  0.30063004  0.90892435    -0.43900
N780        N  0.63094572  0.27390282  0.80891110    -0.43900
C781        C  0.83008880  0.28852147  0.69442408    -0.00300
C782        C  0.81779899  0.31624585  0.70002361    -0.12200
C783        C  0.82815594  0.33854326  0.66565531     0.01900
C784        C  0.85114823  0.33339086  0.62417064    -0.00400
C785        C  0.86449942  0.30602603  0.61994959    -0.12100
C786        C  0.85426232  0.28366788  0.65443658     0.01800
H787        H  0.79975937  0.32047651  0.73110083     0.14800
H788        H  0.88177053  0.30173005  0.58773766     0.14800
C789        C  0.86735031  0.25557851  0.64506101     0.36500
C790        C  0.81480659  0.36660098  0.67399443     0.36400
N791        N  0.87792852  0.23308257  0.63764383    -0.43900
N792        N  0.80419803  0.38902722  0.68194970    -0.43900
C793        C  0.83717858  0.20112158  0.81816555    -0.00300
C794        C  0.84850347  0.20857133  0.87096530    -0.12200
C795        C  0.86080518  0.18797873  0.90682220     0.01900
C796        C  0.86254935  0.15922312  0.89012807    -0.00400
C797        C  0.85703639  0.15269036  0.83456286    -0.12100
C798        C  0.84564479  0.17369808  0.79798603     0.01800
H799        H  0.84637084  0.23039583  0.88541660     0.14800
H800        H  0.86034573  0.13096766  0.82021508     0.14800
C801        C  0.84487318  0.16702242  0.74012344     0.36500
C802        C  0.87192006  0.19729071  0.96010517     0.36400
N803        N  0.84471312  0.16183244  0.69361904    -0.43900
N804        N  0.88150326  0.20619308  0.00147978    -0.43900
C805        C  0.75190592  0.28333998  0.16676551    -0.00300
C806        C  0.72401313  0.29354969  0.19356754    -0.12200
C807        C  0.69976269  0.30816178  0.16487802     0.01900
C808        C  0.70317455  0.31295039  0.10843546    -0.00400
C809        C  0.73192080  0.30504216  0.08237446    -0.12100
C810        C  0.75643887  0.29071696  0.11101664     0.01800
H811        H  0.71987350  0.28882078  0.23640450     0.14800
H812        H  0.73480699  0.30935983  0.03899580     0.14800
C813        C  0.78596757  0.28437789  0.08220123     0.36500
C814        C  0.67087922  0.31677336  0.19340316     0.36400
N815        N  0.80957464  0.27938331  0.05884065    -0.43900
N816        N  0.64774144  0.32380841  0.21613034    -0.43900
C817        C  0.73770266  0.23452818  0.31876862    -0.00300
C818        C  0.74564294  0.23059534  0.37387228    -0.12200
C819        C  0.72209028  0.22234211  0.41135598     0.01900
C820        C  0.68921541  0.21973451  0.39438085    -0.00400
C821        C  0.68098588  0.22541675  0.33949364    -0.12100
C822        C  0.70518341  0.23172400  0.30115439     0.01800
H823        H  0.77083413  0.23195246  0.38681373     0.14800
H824        H  0.65614887  0.22249053  0.32564460     0.14800
C825        C  0.69651106  0.23247581  0.24364640     0.36500
C826        C  0.73333194  0.21426943  0.46539441     0.36400
N827        N  0.68941938  0.23265189  0.19756227    -0.43900
N828        N  0.74343119  0.20695952  0.50748552    -0.43900
C829        C  0.83136829  0.28728140  0.30529007    -0.00300
C830        C  0.84832536  0.27977758  0.35332466    -0.12200
C831        C  0.85836622  0.30080137  0.39128254     0.01900
C832        C  0.85079209  0.32979048  0.38165658    -0.00400
C833        C  0.83624466  0.33728043  0.33145261    -0.12100
C834        C  0.82700793  0.31645268  0.29313328     0.01800
H835        H  0.85215131  0.25740377  0.36265593     0.14800
H836        H  0.83126015  0.35955222  0.32272325     0.14800
C837        C  0.81324864  0.32567890  0.24148062     0.36500
C838        C  0.87444271  0.29181643  0.44107996     0.36400
N839        N  0.80262046  0.33337900  0.20000000    -0.43900
N840        N  0.88758347  0.28445414  0.48068515    -0.43900
C841        C  0.82431455  0.19588753  0.19059887    -0.00300
C842        C  0.81581716  0.16721859  0.20240520    -0.12200
C843        C  0.82740563  0.14445232  0.17090715     0.01900
C844        C  0.84870172  0.14967166  0.12697897    -0.00400
C845        C  0.86120383  0.17731933  0.12065609    -0.12100
C846        C  0.84888349  0.20039393  0.15089132     0.01800
H847        H  0.79950790  0.16178672  0.23503230     0.14800
H848        H  0.87932940  0.18112796  0.08982612     0.14800
C849        C  0.86106140  0.22863307  0.13854899     0.36500
C850        C  0.81686984  0.11579293  0.18444751     0.36400
N851        N  0.87086306  0.25126441  0.12876066    -0.43900
N852        N  0.80854388  0.09284496  0.19536207    -0.43900
C853        C  0.81297646  0.72197487  0.21355271     0.86300
C854        C  0.79413550  0.74070175  0.17179833    -0.53900
C855        C  0.77822595  0.76340889  0.19488272     0.09300
C856        C  0.78298497  0.76540568  0.25715219     0.20200
C857        C  0.83545117  0.74297462  0.24497364    -0.54600
C858        C  0.81973542  0.76587464  0.26703917     0.09400
C859        C  0.78664819  0.71380896  0.25564690    -0.54200
C860        C  0.77122501  0.73650467  0.27764521     0.09900
H861        H  0.79151171  0.73490382  0.12880422     0.14500
H862        H  0.77029631  0.78351405  0.27689988     0.00200
H863        H  0.86139788  0.73999755  0.24924295     0.14800
H864        H  0.77880969  0.69250892  0.26642482     0.14500
C865        C  0.81872727  0.72373792  0.79019171     0.86300
C866        C  0.79257322  0.71253351  0.74963531    -0.53900
C867        C  0.77411729  0.73326671  0.72561602     0.09300
C868        C  0.78308962  0.76355056  0.74513971     0.20200
C869        C  0.83818738  0.74607606  0.75788714    -0.54600
C870        C  0.81976669  0.76685259  0.73372120     0.09400
C871        C  0.79848750  0.74123528  0.83129451    -0.54200
C872        C  0.77962847  0.76175577  0.80771489     0.09900
H873        H  0.78700635  0.69014768  0.74340621     0.14500
H874        H  0.76786764  0.78063706  0.72723048     0.00200
H875        H  0.86435992  0.74535610  0.75432645     0.14800
H876        H  0.79689912  0.73612042  0.87470443     0.14500
O877        O  0.79682778  0.91671911  0.45097365    -0.85500
O878        O  0.83201762  0.86931060  0.42827915    -0.82500
C879        C  0.85555508  0.85259968  0.42329744     0.98000
O880        O  0.87940253  0.85394942  0.45657178    -0.82600
O881        O  0.91228379  0.90375633  0.43059886    -0.85200
C882        C  0.91364174  0.92995174  0.41810073     1.02500
O883        O  0.89981168  0.94828314  0.44792155    -0.78000
O884        O  0.83558117  0.94466328  0.42188924    -0.78200
C885        C  0.80698840  0.93541140  0.41809345     1.02400
O886        O  0.80667212  0.90775882  0.56501996    -0.85500
O887        O  0.83517140  0.85571870  0.54271176    -0.82600
C888        C  0.85770011  0.85402172  0.57775296     0.98000
O889        O  0.88300865  0.86915000  0.57287173    -0.82600
O890        O  0.91987380  0.91734008  0.54827697    -0.85200
C891        C  0.90918704  0.93826479  0.57610928     1.02500
O892        O  0.88242111  0.94921110  0.56325701    -0.78000
O893        O  0.81824938  0.95067073  0.53467416    -0.78200
C894        C  0.80223270  0.93440448  0.56607440     1.02400
Cr895      Cr  0.82105351  0.88878500  0.49690226     1.93700
Cr896      Cr  0.89578061  0.88770116  0.50179740     1.93200
Cr897      Cr  0.85925822  0.94501914  0.49252938     1.39100
O898        O  0.85885542  0.90719607  0.49737796    -1.23200
O899        O  0.79711248  0.56711742  0.03279732    -0.85500
O900        O  0.83340987  0.61217988  0.06887239    -0.82500
C901        C  0.85735474  0.62817229  0.07878975     0.98000
O902        O  0.88255530  0.62677593  0.04931152    -0.82600
O903        O  0.90980773  0.57336299  0.06943232    -0.85200
C904        C  0.91129856  0.54639917  0.07228876     1.02500
O905        O  0.89777022  0.53153483  0.03527577    -0.78000
O906        O  0.83289871  0.53618844  0.06137720    -0.78200
C907        C  0.80487816  0.54663110  0.06376740     1.02400
O908        O  0.80981622  0.58203222  0.92245524    -0.85500
O909        O  0.84191499  0.63138278  0.95849293    -0.82600
C910        C  0.86628961  0.63416574  0.92789385     0.98000
O911        O  0.88996085  0.61736593  0.93230813    -0.82600
O912        O  0.92111644  0.56618736  0.95146981    -0.85200
C913        C  0.90955170  0.54798094  0.91766801     1.02500
O914        O  0.88095661  0.53892891  0.92222576    -0.78000
O915        O  0.81676625  0.53733375  0.94675125    -0.78200
C916        C  0.80333754  0.55577574  0.91654810     1.02400
Cr917      Cr  0.82361770  0.59674396  0.99553385     1.93700
Cr918      Cr  0.89802941  0.59447933  0.00038888     1.93200
Cr919      Cr  0.85745856  0.53907127  0.99179710     1.39100
O920        O  0.85980373  0.57684476  0.99552690    -1.23200
C921        C  0.98937522  0.99574341  0.74993619    -0.02600
O922        O  0.18616989  0.92131927  0.02936124    -0.85500
O923        O  0.15047714  0.87571356  0.06838794    -0.82500
C924        C  0.12778350  0.85806187  0.07592390     0.98000
O925        O  0.10325695  0.85738277  0.04399317    -0.82600
O926        O  0.06986326  0.90700084  0.06528544    -0.85200
C927        C  0.06788375  0.93363978  0.07280129     1.02500
O928        O  0.08289664  0.95065683  0.04137762    -0.78000
O929        O  0.14889231  0.94907960  0.06199063    -0.78200
C930        C  0.17797420  0.94096689  0.06161758     1.02400
O931        O  0.16996513  0.90466756  0.92090327    -0.85500
O932        O  0.14267740  0.85485128  0.95986029    -0.82600
C933        C  0.12078232  0.85249962  0.92389820     0.98000
O934        O  0.09581486  0.86782137  0.92658284    -0.82600
O935        O  0.05873381  0.91576174  0.94873132    -0.85200
C936        C  0.06800634  0.93648307  0.91909675     1.02500
O937        O  0.09568689  0.94743736  0.92610525    -0.78000
O938        O  0.16056302  0.94913577  0.94496003    -0.78200
C939        C  0.17370216  0.93111901  0.91328517     1.02400
Cr940      Cr  0.15917175  0.89049358  0.99474966     1.93700
Cr941      Cr  0.08473227  0.88851946  0.99595625     1.93200
Cr942      Cr  0.12184815  0.94615437  0.99385500     1.39100
O943        O  0.12161487  0.90852820  0.99469567    -1.23200
O944        O  0.16304542  0.58403647  0.43100577    -0.85500
O945        O  0.13295009  0.63441543  0.46024406    -0.82500
C946        C  0.11494515  0.63366750  0.41864027     0.98000
O947        O  0.09016799  0.61760753  0.41886256    -0.82600
O948        O  0.05398362  0.56856774  0.44300427    -0.85200
C949        C  0.06594723  0.54761110  0.41719503     1.02500
O950        O  0.09338139  0.53806109  0.43039061    -0.78000
O951        O  0.15692742  0.54034517  0.46180382    -0.78200
C952        C  0.17003730  0.55791839  0.42922865     1.02400
O953        O  0.17468078  0.57309676  0.54332430    -0.85500
O954        O  0.13553832  0.61796613  0.57082609    -0.82600
C955        C  0.11151659  0.63443399  0.57268874     0.98000
O956        O  0.08925301  0.63316666  0.53628795    -0.82600
O957        O  0.05772236  0.58238006  0.55860673    -0.85200
C958        C  0.05793199  0.55606585  0.57024197     1.02500
O959        O  0.07383063  0.53847041  0.54212858    -0.78000
O960        O  0.13753060  0.54473101  0.57540760    -0.78200
C961        C  0.16541375  0.55580581  0.57943871     1.02400
Cr962      Cr  0.14882241  0.60090209  0.50097862     1.93700
Cr963      Cr  0.07536346  0.59913536  0.48953449     1.93200
Cr964      Cr  0.11505557  0.54328683  0.50216256     1.39100
O965        O  0.11269693  0.58093262  0.49775916    -1.23200
C966        C  0.15813227  0.71818858  0.72342493     0.86300
C967        C  0.17587325  0.70423253  0.77246525    -0.53900
C968        C  0.19654279  0.72209072  0.79999739     0.09300
C969        C  0.19711618  0.75265785  0.77722021     0.20200
C970        C  0.14126865  0.74439171  0.74814808    -0.54600
C971        C  0.16140558  0.76259756  0.77695501     0.09400
C972        C  0.18616917  0.73040897  0.68890790    -0.54200
C973        C  0.20615495  0.74859903  0.71677858     0.09900
H974        H  0.17527333  0.68168017  0.78199483     0.14500
H975        H  0.21445116  0.76661228  0.79952778     0.00200
H976        H  0.11543250  0.74789870  0.74359375     0.14800
H977        H  0.18993646  0.72523807  0.64592889     0.14500
C978        C  0.16210842  0.72344511  0.27572243     0.86300
C979        C  0.17926542  0.74069065  0.32119303    -0.53900
C980        C  0.19867931  0.76224380  0.30305731     0.09300
C981        C  0.19823200  0.76588808  0.24059029     0.20200
C982        C  0.14320396  0.74581706  0.24263991    -0.54600
C983        C  0.16212364  0.76796049  0.22436409     0.09400
C984        C  0.18933953  0.71479226  0.23586925    -0.54200
C985        C  0.20860218  0.73677774  0.21847524     0.09900
H986        H  0.17791799  0.73494003  0.36436731     0.14500
H987        H  0.21349513  0.78381978  0.22548713     0.00200
H988        H  0.11795481  0.74423081  0.23141225     0.14800
H989        H  0.19309893  0.69291229  0.22250687     0.14500
C990        C  0.98843152  0.98942296  0.24568539    -0.02600
O991        O  0.29329720  0.82785875  0.56247728    -0.85500
O992        O  0.33001034  0.87547487  0.58951846    -0.82500
C993        C  0.35211759  0.89416871  0.58869417     0.98000
O994        O  0.37417843  0.89353939  0.55284419    -0.82600
O995        O  0.40874917  0.84453614  0.57213530    -0.85200
C996        C  0.41151085  0.81813704  0.58184563     1.02500
O997        O  0.39646062  0.79988592  0.55273676    -0.78000
O998        O  0.33288679  0.80026684  0.58754737    -0.78200
C999        C  0.30417520  0.80872515  0.59362968     1.02400
O1000       O  0.29865005  0.84190991  0.45017622    -0.85500
O1001       O  0.32759278  0.89314276  0.47871355    -0.82600
C1002       C  0.34633101  0.89624100  0.43869056     0.98000
O1003       O  0.37140280  0.88085588  0.43622963    -0.82600
O1004       O  0.41084309  0.83375656  0.45321812    -0.85200
C1005       C  0.39907550  0.81328479  0.42509456     1.02500
O1006       O  0.37324195  0.80119401  0.43990367    -0.78000
O1007       O  0.31105690  0.79831276  0.47498734    -0.78200
C1008       C  0.29489325  0.81526981  0.44502532     1.02400
Cr1009     Cr  0.31542946  0.85821482  0.51978032     1.93700
Cr1010     Cr  0.38875487  0.86139440  0.50427446     1.93200
Cr1011     Cr  0.35364130  0.80292370  0.51374539     1.39100
O1012       O  0.35284091  0.84072588  0.51255597    -1.23200
O1013       O  0.31269879  0.65988859  0.94028372    -0.85500
O1014       O  0.34761748  0.61338277  0.97832836    -0.82500
C1015       C  0.36851053  0.61080661  0.94137615     0.98000
O1016       O  0.39156579  0.62867691  0.93811185    -0.82600
O1017       O  0.42443669  0.68066199  0.95090473    -0.85200
C1018       C  0.41116332  0.69768841  0.91701480     1.02500
O1019       O  0.38303446  0.70666659  0.92618354    -0.78000
O1020       O  0.31984693  0.70555118  0.95802671    -0.78200
C1021       C  0.30510043  0.68570663  0.93261517     1.02400
O1022       O  0.30401661  0.67756332  0.04924319    -0.85500
O1023       O  0.34491353  0.63596697  0.08612107    -0.82600
C1024       C  0.36912175  0.61997076  0.09183820     0.98000
O1025       O  0.39170549  0.62054054  0.05668711    -0.82600
O1026       O  0.41849820  0.67437038  0.07061796    -0.85200
C1027       C  0.41764285  0.70128405  0.07495496     1.02500
O1028       O  0.40340478  0.71568706  0.03822588    -0.78000
O1029       O  0.33867405  0.71127098  0.07011312    -0.78200
C1030       C  0.31084189  0.70012758  0.07487173     1.02400
Cr1031     Cr  0.33024993  0.64825205  0.01287715     1.93700
Cr1032     Cr  0.40389022  0.65248777  0.00399719     1.93200
Cr1033     Cr  0.36189346  0.70683890  0.99869372     1.39100
O1034       O  0.36541246  0.66928893  0.00491866    -1.23200
C1035       C  0.31510205  0.52597650  0.79423574     0.86300
C1036       C  0.29454680  0.50323552  0.82477878    -0.53900
C1037       C  0.27572978  0.98391599  0.79431373     0.09300
C1038       C  0.28029594  0.99019664  0.73354437     0.20200
C1039       C  0.33499384  0.50898884  0.75296509    -0.54600
C1040       C  0.31693170  0.98802966  0.72430051     0.09400
C1041       C  0.28922150  0.54186240  0.76012542    -0.54200
C1042       C  0.27086437  0.52462891  0.72613408     0.09900
H1043       H  0.29033700  0.50284453  0.86862086     0.14500
H1044       H  0.26598947  0.97554384  0.70680148     0.00200
H1045       H  0.36126873  0.50979131  0.75145858     0.14800
H1046       H  0.28450049  0.56436852  0.76629186     0.14500
C1047       C  0.31859350  0.53117423  0.22570345     0.86300
C1048       C  0.29403711  0.54302150  0.26724850    -0.53900
C1049       C  0.27348176  0.52325615  0.28795033     0.09300
C1050       C  0.27771991  0.99259742  0.26644257     0.20200
C1051       C  0.33555691  0.50660101  0.25640778    -0.54600
C1052       C  0.31356451  0.98529592  0.27879349     0.09400
C1053       C  0.29657783  0.51627151  0.18239745    -0.54200
C1054       C  0.27484992  0.99568812  0.20369653     0.09900
H1055       H  0.29061820  0.56522911  0.27765652     0.14500
H1056       H  0.26036616  0.97693679  0.28365210     0.00200
H1057       H  0.36090077  0.00400107  0.26491537     0.14800
H1058       H  0.29678597  0.52203769  0.13921430     0.14500
C1059       C  0.48834875  0.75422698  0.74543335    -0.02600
C1060       C  0.65775016  0.52373065  0.70560891     0.86300
C1061       C  0.68137148  0.50838262  0.66713897    -0.53900
C1062       C  0.70102335  0.98861493  0.69119441     0.09300
C1063       C  0.69564419  0.98616802  0.75323254     0.20200
C1064       C  0.63822763  0.49914332  0.73232584    -0.54600
C1065       C  0.65925714  0.97865594  0.75929537     0.09400
C1066       C  0.67880423  0.53510648  0.75344205    -0.54200
C1067       C  0.69826986  0.51550408  0.77777656     0.09900
H1068       H  0.68379652  0.51357969  0.62384227     0.14500
H1069       H  0.71278420  0.97170546  0.77419582     0.00200
H1070       H  0.61309222  0.99564304  0.73473573     0.14800
H1071       H  0.67999217  0.55762582  0.76416913     0.14500
O1072       O  0.66539417  0.67249714  0.57150771    -0.85500
O1073       O  0.63993898  0.62166341  0.52847671    -0.82500
C1074       C  0.61863954  0.61813963  0.56429410     0.98000
O1075       O  0.59293057  0.63254266  0.56167132    -0.82600
O1076       O  0.55640363  0.68076912  0.54309216    -0.85200
C1077       C  0.56731500  0.69921188  0.57711241     1.02500
O1078       O  0.59373751  0.71183244  0.56822812    -0.78000
O1079       O  0.65746033  0.71667966  0.54558242    -0.78200
C1080       C  0.67001600  0.69897589  0.57863963     1.02400
O1081       O  0.68065748  0.68941080  0.46285120    -0.85500
O1082       O  0.64692375  0.64295122  0.42214427    -0.82600
C1083       C  0.62523933  0.62421565  0.41367126     0.98000
O1084       O  0.59993675  0.62376536  0.44321553    -0.82600
O1085       O  0.56640647  0.67389546  0.42393539    -0.85200
C1086       C  0.56335090  0.70064799  0.41998445     1.02500
O1087       O  0.57699181  0.71702496  0.45458430    -0.78000
O1088       O  0.64226445  0.71619101  0.42938381    -0.78200
C1089       C  0.67131726  0.70802857  0.42924493     1.02400
Cr1090     Cr  0.65538504  0.65786654  0.49639884     1.93700
Cr1091     Cr  0.58142310  0.65437387  0.49299799     1.93200
Cr1092     Cr  0.61737816  0.71262761  0.49887242     1.39100
O1093       O  0.61775622  0.67497645  0.49597313    -1.23200
C1094       C  0.66480371  0.52633156  0.28022937     0.86300
C1095       C  0.68631204  0.53470354  0.23146165    -0.53900
C1096       C  0.70240822  0.51256835  0.20840212     0.09300
C1097       C  0.69307133  0.98303464  0.23509836     0.20200
C1098       C  0.64129072  0.50387574  0.25483721    -0.54600
C1099       C  0.65582621  0.98006892  0.23348415     0.09400
C1100       C  0.68664350  0.50905125  0.31889162    -0.54200
C1101       C  0.70232524  0.98525552  0.29602482     0.09900
H1102       H  0.68987410  0.55662252  0.21804367     0.14500
H1103       H  0.70607244  0.96604469  0.21243414     0.00200
H1104       H  0.61368761  0.00282049  0.25988492     0.14800
H1105       H  0.69106061  0.51505916  0.36146349     0.14500
O1106       O  0.68208135  0.83039424  0.96556969    -0.85500
O1107       O  0.64645363  0.87504243  0.92813728    -0.82500
C1108       C  0.62356779  0.89194641  0.91832098     0.98000
O1109       O  0.59892987  0.89211626  0.94926511    -0.82600
O1110       O  0.56748371  0.84071787  0.92911711    -0.85200
C1111       C  0.56492160  0.81392816  0.92414976     1.02500
O1112       O  0.57911921  0.79785985  0.95855104    -0.78000
O1113       O  0.64551614  0.80016113  0.93572081    -0.78200
C1114       C  0.67414795  0.81007119  0.93417516     1.02400
O1115       O  0.66884413  0.84611244  0.07490081    -0.85500
O1116       O  0.63945357  0.89571910  0.03686424    -0.82600
C1117       C  0.61643013  0.89864637  0.06997823     0.98000
O1118       O  0.59219353  0.88212031  0.06724404    -0.82600
O1119       O  0.55672807  0.83298003  0.04618317    -0.85200
C1120       C  0.56665856  0.81455199  0.08048987     1.02500
O1121       O  0.59420863  0.80341957  0.07442413    -0.78000
O1122       O  0.65949779  0.80143757  0.05101518    -0.78200
C1123       C  0.67451211  0.81978705  0.07996490     1.02400
Cr1124     Cr  0.65598869  0.86042046  0.00151334     1.93700
Cr1125     Cr  0.58170922  0.86045387  0.99825831     1.93200
Cr1126     Cr  0.61924819  0.80365215  0.00469535     1.39100
O1127       O  0.61883844  0.84140711  0.00165640    -1.23200
C1128       C  0.48420315  0.76486239  0.25652666    -0.02600
C1129       C  0.50726977  0.78416511  0.21858491    -0.00300
C1130       C  0.49390051  0.80038942  0.17464317    -0.12200
C1131       C  0.51211393  0.81016238  0.12976492     0.01900
C1132       C  0.54580386  0.80561950  0.12810200    -0.00400
C1133       C  0.56031817  0.79373605  0.17502482    -0.12100
C1134       C  0.54204504  0.78468628  0.22070668     0.01800
H1135       H  0.46907227  0.80677325  0.17521628     0.14800
H1136       H  0.58649391  0.79254573  0.17706477     0.14800
C1137       C  0.56056826  0.78052070  0.27052496     0.36500
C1138       C  0.49498327  0.82421041  0.08556152     0.36400
N1139       N  0.57618192  0.77779288  0.30984255    -0.43900
N1140       N  0.48109991  0.83538731  0.05024904    -0.43900
C1141       C  0.63960074  0.96090184  0.19326960    -0.00300
C1142       C  0.64215436  0.96791102  0.13761180    -0.12200
C1143       C  0.63205623  0.94873933  0.09681391     0.01900
C1144       C  0.61919395  0.92174701  0.11146250    -0.00400
C1145       C  0.61450623  0.91551462  0.16734941    -0.12100
C1146       C  0.62473699  0.93490017  0.20832758     0.01800
H1147       H  0.65322785  0.98807336  0.12594753     0.14800
H1148       H  0.60492357  0.89479292  0.17906734     0.14800
C1149       C  0.62171430  0.92697972  0.26531238     0.36500
C1150       C  0.63605961  0.95701620  0.04008107     0.36400
N1151       N  0.61949387  0.92060156  0.31104540    -0.43900
N1152       N  0.63936810  0.96375006  0.99473562    -0.43900
C1153       C  0.54230041  0.71411450  0.37732746    -0.00300
C1154       C  0.52428991  0.73747561  0.39427775    -0.12200
C1155       C  0.50833201  0.75515906  0.35706542     0.01900
C1156       C  0.50550287  0.74763592  0.29980189    -0.00400
C1157       C  0.52595482  0.72501913  0.28259804    -0.12100
C1158       C  0.54363053  0.70811618  0.32053604     0.01800
H1159       H  0.52493474  0.74348583  0.43743455     0.14800
H1160       H  0.52790796  0.72037065  0.23912453     0.14800
C1161       C  0.56393299  0.68560613  0.30005180     0.36500
C1162       C  0.50177347  0.78302710  0.37968957     0.36400
N1163       N  0.58025346  0.66754042  0.28368215    -0.43900
N1164       N  0.49831394  0.80489399  0.40105863    -0.43900
C1165       C  0.63225885  0.60087417  0.37371149    -0.00300
C1166       C  0.66463881  0.59768006  0.35827207    -0.12200
C1167       C  0.67495535  0.57411788  0.32859533     0.01900
C1168       C  0.65239267  0.55300683  0.31005399    -0.00400
C1169       C  0.61948271  0.55677649  0.32321570    -0.12100
C1170       C  0.60937475  0.58019591  0.35532797     0.01800
H1171       H  0.68281803  0.61297851  0.37209375     0.14800
H1172       H  0.60163849  0.54103436  0.31060941     0.14800
C1173       C  0.57557214  0.58208503  0.36940661     0.36500
C1174       C  0.70952594  0.57197567  0.32009138     0.36400
N1175       N  0.54846051  0.58346189  0.38075919    -0.43900
N1176       N  0.73718284  0.57053436  0.31335753    -0.43900
C1177       C  0.64273940  0.54907087  0.67439876    -0.00300
C1178       C  0.66574263  0.56949637  0.65734690    -0.12200
C1179       C  0.65778842  0.59263004  0.62499447     0.01900
C1180       C  0.62548453  0.59660012  0.60740870    -0.00400
C1181       C  0.60162972  0.57724766  0.62552772    -0.12100
C1182       C  0.60991025  0.55335056  0.65831059     0.01800
H1183       H  0.69113227  0.56675172  0.66792099     0.14800
H1184       H  0.57685866  0.57981537  0.61137162     0.14800
C1185       C  0.58442596  0.53327202  0.67056463     0.36500
C1186       C  0.68434720  0.61107526  0.60894658     0.36400
N1187       N  0.56330351  0.51755571  0.67919439    -0.43900
N1188       N  0.70628399  0.62511134  0.59655720    -0.43900
C1189       C  0.64728385  0.95444430  0.79423574    -0.00300
C1190       C  0.61947525  0.95833903  0.82673730    -0.12200
C1191       C  0.60969601  0.93778016  0.86548624     0.01900
C1192       C  0.62782211  0.91251227  0.87219487    -0.00400
C1193       C  0.65384356  0.90774643  0.83675381    -0.12100
C1194       C  0.66402849  0.92821605  0.79910187     0.01800
H1195       H  0.60619420  0.97817954  0.82415960     0.14800
H1196       H  0.66758837  0.88813174  0.84002396     0.14800
C1197       C  0.69277277  0.92113098  0.76893365     0.36500
C1198       C  0.58195392  0.94388545  0.89910649     0.36400
N1199       N  0.71655921  0.91404728  0.74831268    -0.43900
N1200       N  0.55966929  0.94884075  0.92595436    -0.43900
C1201       C  0.50964280  0.73410255  0.70909892    -0.00300
C1202       C  0.54384062  0.73642993  0.70984707    -0.12200
C1203       C  0.56310485  0.72293363  0.67075805     0.01900
C1204       C  0.54855045  0.70768102  0.62665112    -0.00400
C1205       C  0.51503978  0.70299198  0.62790170    -0.12100
C1206       C  0.49566586  0.71565633  0.66830311     0.01800
H1207       H  0.55613281  0.75090291  0.73771623     0.14800
H1208       H  0.50354445  0.69071368  0.59524248     0.14800
C1209       C  0.46122911  0.71083668  0.66334382     0.36500
C1210       C  0.59775366  0.72698626  0.67565487     0.36400
N1211       N  0.43382654  0.70619598  0.65805265    -0.43900
N1212       N  0.62539800  0.73058674  0.68016507    -0.43900
C1213       C  0.50954739  0.77013342  0.79195725    -0.00300
C1214       C  0.51143296  0.80054727  0.79472137    -0.12200
C1215       C  0.52889295  0.81539587  0.83632774     0.01900
C1216       C  0.54515910  0.80031322  0.87846477    -0.00400
C1217       C  0.54426751  0.77050661  0.87571107    -0.12100
C1218       C  0.52849949  0.75556128  0.83321465     0.01800
H1219       H  0.50016986  0.81355290  0.76357711     0.14800
H1220       H  0.55777533  0.75833999  0.90599597     0.14800
C1221       C  0.53781173  0.72593213  0.83094140     0.36500
C1222       C  0.53023027  0.84618787  0.83349441     0.36400
N1223       N  0.54732080  0.70271321  0.83095108    -0.43900
N1224       N  0.53142721  0.87085826  0.83087143    -0.43900
C1225       C  0.46261449  0.73454235  0.77699445    -0.00300
C1226       C  0.47311342  0.70879899  0.80157913    -0.12200
C1227       C  0.45754668  0.69646669  0.84709519     0.01900
C1228       C  0.42858257  0.70837440  0.86685769    -0.00400
C1229       C  0.41412322  0.72966101  0.83430538    -0.12100
C1230       C  0.42939025  0.74070781  0.78725042     0.01800
H1231       H  0.49375633  0.69792458  0.78495795     0.14800
H1232       H  0.38950215  0.73613706  0.84288904     0.14800
C1233       C  0.40716857  0.74815111  0.74364463     0.36500
C1234       C  0.47169566  0.67134063  0.87145721     0.36400
N1235       N  0.38847768  0.75307133  0.70931112    -0.43900
N1236       N  0.48317474  0.65118796  0.89073495    -0.43900
C1237       C  0.43293717  0.71639803  0.12331899    -0.00300
C1238       C  0.44980471  0.70094635  0.16389742    -0.12200
C1239       C  0.46312624  0.71449561  0.21106711     0.01900
C1240       C  0.46352281  0.74502068  0.21539296    -0.00400
C1241       C  0.44054986  0.75854404  0.18092804    -0.12100
C1242       C  0.42719676  0.74559529  0.13416595     0.01800
H1243       H  0.45075665  0.67785695  0.16072937     0.14800
H1244       H  0.43179429  0.77949576  0.19136610     0.14800
C1245       C  0.40693875  0.76317451  0.09948878     0.36500
C1246       C  0.46770399  0.69613052  0.25797032     0.36400
N1247       N  0.39094312  0.77745352  0.07175957    -0.43900
N1248       N  0.47045218  0.68106611  0.29536078    -0.43900
C1249       C  0.33624914  0.54567729  0.83030272    -0.00300
C1250       C  0.34030527  0.53959069  0.88625199    -0.12200
C1251       C  0.35236265  0.55994747  0.92265787     0.01900
C1252       C  0.36427086  0.58640501  0.90316082    -0.00400
C1253       C  0.36569803  0.59071155  0.84619155    -0.12100
C1254       C  0.35178564  0.57060327  0.80967121     0.01800
H1255       H  0.33296787  0.51930114  0.90319247     0.14800
H1256       H  0.37528405  0.61067816  0.83041120     0.14800
C1257       C  0.35319242  0.57640200  0.75155553     0.36500
C1258       C  0.34850231  0.55359487  0.98009944     0.36400
N1259       N  0.35469921  0.58096251  0.70494049    -0.43900
N1260       N  0.34320857  0.54733523  0.02502291    -0.43900
C1261       C  0.34169268  0.55381829  0.20088903    -0.00300
C1262       C  0.34163820  0.58248726  0.21948947    -0.12200
C1263       C  0.35341919  0.60466310  0.18673069     0.01900
C1264       C  0.36824383  0.59839861  0.13639456    -0.00400
C1265       C  0.37571114  0.56983769  0.12473880    -0.12100
C1266       C  0.36191151  0.54748692  0.15567951     0.01800
H1267       H  0.33143642  0.58843213  0.25840109     0.14800
H1268       H  0.38941778  0.56488273  0.08819697     0.14800
C1269       C  0.36677312  0.51846534  0.13751792     0.36500
C1270       C  0.34872679  0.63381772  0.20451482     0.36400
N1271       N  0.36972627  0.99311278  0.12163577    -0.43900
N1272       N  0.34484829  0.65717027  0.21855239    -0.43900
C1273       C  0.41637427  0.80251894  0.37537164    -0.00300
C1274       C  0.43556620  0.82117840  0.34385669    -0.12200
C1275       C  0.45608350  0.81105552  0.30185756     0.01900
C1276       C  0.45774429  0.78108601  0.29055997    -0.00400
C1277       C  0.43544678  0.76331463  0.31875673    -0.12100
C1278       C  0.41530058  0.77344603  0.36019307     0.01800
H1279       H  0.43600378  0.84371857  0.35429288     0.14800
H1280       H  0.43546824  0.74050567  0.31132737     0.14800
C1281       C  0.39567590  0.75274258  0.38905143     0.36500
C1282       C  0.47797407  0.83180434  0.27865113     0.36400
N1283       N  0.37998839  0.73607063  0.41196443    -0.43900
N1284       N  0.49530623  0.84902604  0.26119474    -0.43900
C1285       C  0.47251865  0.77696475  0.70410542    -0.00300
C1286       C  0.44692685  0.79497095  0.72093096    -0.12200
C1287       C  0.42677503  0.80907462  0.68231252     0.01900
C1288       C  0.43383338  0.80778486  0.62574233    -0.00400
C1289       C  0.46267316  0.79517362  0.61005472    -0.12100
C1290       C  0.48296147  0.78181910  0.64846846     0.01800
H1291       H  0.44074069  0.79597326  0.76406243     0.14800
H1292       H  0.46995032  0.79658271  0.56735568     0.14800
C1293       C  0.51580124  0.77845527  0.62990804     0.36500
C1294       C  0.39718270  0.82191435  0.70106922     0.36400
N1295       N  0.54176107  0.77724086  0.61248825    -0.43900
N1296       N  0.37312200  0.83164527  0.71606812    -0.43900
C1297       C  0.34801483  0.91984501  0.62189182    -0.00300
C1298       C  0.32699380  0.94050090  0.60096393    -0.12200
C1299       C  0.31855726  0.96409720  0.63241785     0.01900
C1300       C  0.33064357  0.96682807  0.68637473    -0.00400
C1301       C  0.35350677  0.94714810  0.70606672    -0.12100
C1302       C  0.36260502  0.92379379  0.67374302     0.01800
H1303       H  0.31673137  0.93791127  0.56012538     0.14800
H1304       H  0.36329934  0.94942278  0.74731930     0.14800
C1305       C  0.38682251  0.90445856  0.69436627     0.36500
C1306       C  0.29784813  0.98540176  0.60817020     0.36400
N1307       N  0.40681380  0.88954478  0.71107083    -0.43900
N1308       N  0.28150945  0.00263944  0.58862355    -0.43900
C1309       C  0.33828212  0.91872240  0.39681807    -0.00300
C1310       C  0.35821863  0.92327610  0.35084373    -0.12200
C1311       C  0.35071511  0.94430872  0.31118038     0.01900
C1312       C  0.32296080  0.96162035  0.31733644    -0.00400
C1313       C  0.30286717  0.95641416  0.36226707    -0.12100
C1314       C  0.30996365  0.93571135  0.40152905     0.01800
H1315       H  0.37950620  0.91018130  0.34540442     0.14800
H1316       H  0.28112386  0.96868586  0.36740503     0.14800
C1317       C  0.28691967  0.93280695  0.44570916     0.36500
C1318       C  0.37073491  0.94638769  0.26305129     0.36400
N1319       N  0.26816811  0.93072804  0.48061426    -0.43900
N1320       N  0.38666490  0.94787118  0.22424063    -0.43900
C1321       C  0.22307553  0.77611362  0.33919202    -0.00300
C1322       C  0.22601735  0.80596324  0.33995769    -0.12200
C1323       C  0.24938920  0.81956564  0.37325877     0.01900
C1324       C  0.27046125  0.80296512  0.40638606    -0.00400
C1325       C  0.26778185  0.77303206  0.40399342    -0.12100
C1326       C  0.24468153  0.75959739  0.37088945     0.01800
H1327       H  0.20987158  0.81867666  0.31481386     0.14800
H1328       H  0.28403160  0.75973965  0.42785626     0.14800
C1329       C  0.24534856  0.72877013  0.36762402     0.36500
C1330       C  0.25092491  0.85038863  0.37234276     0.36400
N1331       N  0.24625517  0.70410375  0.36512742    -0.43900
N1332       N  0.25207140  0.87509553  0.37140847    -0.43900
C1333       C  0.23513548  0.73208004  0.17865158    -0.00300
C1334       C  0.22753342  0.71610456  0.13175329    -0.12200
C1335       C  0.25156514  0.70679707  0.09635266     0.01900
C1336       C  0.28466067  0.71319829  0.10781525    -0.00400
C1337       C  0.29213594  0.73112414  0.15242207    -0.12100
C1338       C  0.26767641  0.74074736  0.18770932     0.01800
H1339       H  0.20248675  0.71024305  0.12337894     0.14800
H1340       H  0.31719803  0.73677300  0.16094257     0.14800
C1341       C  0.27725371  0.75857046  0.23336228     0.36500
C1342       C  0.24096269  0.69039143  0.04904632     0.36400
N1343       N  0.28630412  0.77316637  0.26874027    -0.43900
N1344       N  0.23209040  0.67709638  0.01166056    -0.43900
C1345       C  0.22207806  0.71123781  0.83758550    -0.00300
C1346       C  0.23907660  0.68642884  0.82280202    -0.12200
C1347       C  0.26611400  0.67740194  0.85292084     0.01900
C1348       C  0.27669615  0.69348354  0.89868370    -0.00400
C1349       C  0.25905172  0.71777236  0.91435919    -0.12100
C1350       C  0.23178395  0.72650283  0.88482358     0.01800
H1351       H  0.23208111  0.67461914  0.78620009     0.14800
H1352       H  0.26624171  0.72980214  0.95064277     0.14800
C1353       C  0.21371860  0.75063082  0.90495984     0.36500
C1354       C  0.28335950  0.65252631  0.83420708     0.36400
N1355       N  0.19932742  0.76993179  0.92139746    -0.43900
N1356       N  0.29709924  0.63260222  0.81894179    -0.43900
C1357       C  0.23304757  0.76402752  0.68990381    -0.00300
C1358       C  0.22748092  0.79197110  0.67279189    -0.12200
C1359       C  0.25151222  0.80776481  0.64631759     0.01900
C1360       C  0.28141366  0.79481668  0.63274286    -0.00400
C1361       C  0.28717571  0.76676123  0.65088921    -0.12100
C1362       C  0.26329101  0.75138489  0.67952237     0.01800
H1363       H  0.20406351  0.80155197  0.68020277     0.14800
H1364       H  0.30978765  0.75640893  0.64087245     0.14800
C1365       C  0.26992629  0.72241330  0.69600012     0.36500
C1366       C  0.24460746  0.83733141  0.63423455     0.36400
N1367       N  0.27551001  0.69915156  0.70872950    -0.43900
N1368       N  0.23902367  0.86103840  0.62495421    -0.43900
C1369       C  0.24210205  0.53434460  0.69321027    -0.00300
C1370       C  0.21556198  0.51544139  0.68579863    -0.12200
C1371       C  0.18923915  0.52225868  0.65151238     0.01900
C1372       C  0.18896985  0.54859090  0.62366040    -0.00400
C1373       C  0.21438651  0.56813372  0.63367018    -0.12100
C1374       C  0.24074337  0.56134795  0.66735877     0.01800
H1375       H  0.21612236  0.99307288  0.70586442     0.14800
H1376       H  0.21431625  0.58874224  0.61331787     0.14800
C1377       C  0.26643605  0.58230551  0.67151434     0.36500
C1378       C  0.16379397  0.50129706  0.64378024     0.36400
N1379       N  0.28644050  0.59968440  0.67452398    -0.43900
N1380       N  0.14485158  0.98345868  0.63598420    -0.43900
C1381       C  0.24625927  0.53168832  0.32304462    -0.00300
C1382       C  0.24570881  0.52240630  0.37751667    -0.12200
C1383       C  0.22041986  0.52996846  0.41207970     0.01900
C1384       C  0.19577850  0.54818060  0.39262685    -0.00400
C1385       C  0.19675713  0.55822950  0.33846129    -0.12100
C1386       C  0.22160440  0.54986309  0.30334453     0.01800
H1387       H  0.26688611  0.01127468  0.39436334     0.14800
H1388       H  0.17786329  0.57224723  0.32343154     0.14800
C1389       C  0.22075246  0.55930120  0.24687323     0.36500
C1390       C  0.22111534  0.51972565  0.46801536     0.36400
N1391       N  0.22009256  0.56665303  0.20151412    -0.43900
N1392       N  0.22505882  0.01504828  0.51553417    -0.43900
C1393       C  0.00915064  0.50484266  0.28861791    -0.00300
C1394       C  0.04339431  0.50267298  0.29137645    -0.12200
C1395       C  0.06210323  0.51677356  0.33126480     0.01900
C1396       C  0.04709791  0.53332201  0.37219553    -0.00400
C1397       C  0.01318714  0.53497058  0.37173681    -0.12100
C1398       C  0.99427481  0.52067141  0.33185924     0.01800
H1399       H  0.05641744  0.48898937  0.26366552     0.14800
H1400       H  0.00117736  0.54709016  0.40357430     0.14800
C1401       C  0.95958100  0.52364518  0.33621282     0.36500
C1402       C  0.09686579  0.51356120  0.32869160     0.36400
N1403       N  0.93191289  0.52669734  0.34032828    -0.43900
N1404       N  0.12465923  0.51082726  0.32648922    -0.43900
C1405       C  0.12423759  0.65226896  0.37199138    -0.00300
C1406       C  0.10173285  0.67082990  0.34780482    -0.12200
C1407       C  0.11197081  0.69368392  0.31402815     0.01900
C1408       C  0.14546602  0.69719818  0.30152165    -0.00400
C1409       C  0.16707126  0.67699432  0.32316472    -0.12100
C1410       C  0.15727811  0.65544522  0.35832306     0.01800
H1411       H  0.07645615  0.66904015  0.35920224     0.14800
H1412       H  0.19284645  0.67939362  0.31620654     0.14800
C1413       C  0.18294631  0.63886474  0.38295970     0.36500
C1414       C  0.08760956  0.71399437  0.29825388     0.36400
N1415       N  0.20479317  0.62694671  0.40191220    -0.43900
N1416       N  0.06739325  0.72994237  0.28663165    -0.43900
C1417       C  0.13571175  0.69843558  0.68942783    -0.00300
C1418       C  0.12827601  0.67049245  0.70744063    -0.12200
C1419       C  0.11714257  0.64963171  0.67060509     0.01900
C1420       C  0.11176831  0.65676980  0.61527406    -0.00400
C1421       C  0.11324518  0.68549206  0.59944457    -0.12100
C1422       C  0.12459676  0.70644816  0.63627818     0.01800
H1423       H  0.13203917  0.66418949  0.74960362     0.14800
H1424       H  0.10811688  0.69122056  0.55711612     0.14800
C1425       C  0.12688329  0.73554746  0.61694480     0.36500
C1426       C  0.11264058  0.62067043  0.68977664     0.36400
N1427       N  0.12892845  0.75883955  0.60141949    -0.43900
N1428       N  0.10891224  0.59745150  0.70485262    -0.43900
C1429       C  0.20296254  0.95472678  0.09746939    -0.00300
C1430       C  0.19404307  0.96463871  0.14936352    -0.12200
C1431       C  0.21676874  0.97719241  0.18526107     0.01900
C1432       C  0.24952832  0.98093789  0.16886596    -0.00400
C1433       C  0.25834629  0.97095633  0.11661708    -0.12100
C1434       C  0.23570228  0.95781797  0.08128873     0.01800
H1435       H  0.16912338  0.96208298  0.16245513     0.14800
H1436       H  0.28323617  0.97323925  0.10329208     0.14800
C1437       C  0.24679085  0.94855178  0.02806154     0.36500
C1438       C  0.20478346  0.98572683  0.23814191     0.36400
N1439       N  0.25597717  0.94115767  0.98559141    -0.43900
N1440       N  0.19375126  0.99137950  0.28028585    -0.43900
C1441       C  0.19653772  0.94155556  0.87152379    -0.00300
C1442       C  0.22561857  0.92669467  0.86348482    -0.12200
C1443       C  0.25145574  0.93959210  0.83573349     0.01900
C1444       C  0.24800041  0.96746098  0.81522856    -0.00400
C1445       C  0.21822934  0.98135364  0.81945155    -0.12100
C1446       C  0.19236187  0.96849232  0.84660084     0.01800
H1447       H  0.22903216  0.90592925  0.88226546     0.14800
H1448       H  0.21564014  0.00287071  0.80368038     0.14800
C1449       C  0.16202563  0.98361870  0.84921605     0.36500
C1450       C  0.28178861  0.92464606  0.83132136     0.36400
N1451       N  0.13768978  0.99568158  0.85105457    -0.43900
N1452       N  0.30616538  0.91277216  0.82766919    -0.43900
C1453       C  0.04783646  0.94605212  0.11824363    -0.00300
C1454       C  0.04919944  0.97569295  0.12608294    -0.12200
C1455       C  0.03115783  0.98945772  0.16643393     0.01900
C1456       C  0.01083617  0.97367061  0.20302551    -0.00400
C1457       C  0.00907575  0.94373304  0.19418054    -0.12100
C1458       C  0.02733893  0.92999093  0.15313095     0.01800
H1459       H  0.06460470  0.98866378  0.10004124     0.14800
H1460       H  0.99268059  0.93072094  0.21805167     0.14800
C1461       C  0.02375689  0.89945269  0.14722648     0.36500
C1462       C  0.03521716  0.02010727  0.16894787     0.36400
N1463       N  0.02078271  0.87495992  0.14265508    -0.43900
N1464       N  0.03994030  0.04450202  0.16931478    -0.43900
C1465       C  0.12642688  0.83204005  0.87885056    -0.00300
C1466       C  0.15557007  0.83502500  0.85056997    -0.12200
C1467       C  0.16721115  0.81341677  0.81654990     0.01900
C1468       C  0.14906631  0.78780945  0.80896385    -0.00400
C1469       C  0.11879073  0.78555915  0.83559302    -0.12100
C1470       C  0.10758342  0.80725417  0.87065258     0.01800
H1471       H  0.17032353  0.85401252  0.85746431     0.14800
H1472       H  0.10458720  0.76610009  0.83172879     0.14800
C1473       C  0.07821159  0.80263383  0.90124315     0.36500
C1474       C  0.19860753  0.81857546  0.79306522     0.36400
N1475       N  0.05478699  0.79895148  0.92613421    -0.43900
N1476       N  0.22427339  0.82401870  0.77727718    -0.43900
C1477       C  0.13202182  0.83603706  0.11842106    -0.00300
C1478       C  0.12306419  0.80781718  0.10567526    -0.12200
C1479       C  0.13221655  0.78526221  0.13986287     0.01900
C1480       C  0.14974586  0.79101073  0.18874692    -0.00400
C1481       C  0.15746398  0.81930700  0.20262641    -0.12100
C1482       C  0.14890418  0.84179971  0.16793744     0.01800
H1483       H  0.11079453  0.80315487  0.06708189     0.14800
H1484       H  0.17072129  0.82380786  0.24028095     0.14800
C1485       C  0.15805004  0.87051922  0.18382994     0.36500
C1486       C  0.12581282  0.75642314  0.12133747     0.36400
N1487       N  0.16545246  0.89351837  0.19644009    -0.43900
N1488       N  0.12083487  0.73332051  0.10634367    -0.43900
C1489       C  0.01116885  0.51372077  0.70635369    -0.00300
C1490       C  0.99298040  0.53026739  0.66816943    -0.12200
C1491       C  0.00753321  0.54573009  0.62546789     0.01900
C1492       C  0.04115026  0.54469041  0.61883159    -0.00400
C1493       C  0.05962215  0.52853428  0.65536443    -0.12100
C1494       C  0.04551547  0.51263504  0.69752572     0.01800
H1495       H  0.96686991  0.53110911  0.67173939     0.14800
H1496       H  0.08558247  0.52717894  0.64894935     0.14800
C1497       C  0.06479297  0.98969582  0.72348552     0.36500
C1498       C  0.98736379  0.56118569  0.58724246     0.36400
N1499       N  0.08268026  0.97382458  0.74361963    -0.43900
N1500       N  0.97126069  0.57355000  0.55643197    -0.43900
C1501       C  0.01064418  0.97899842  0.79274630    -0.00300
C1502       C  0.00547379  0.94956135  0.80394709    -0.12200
C1503       C  0.02308206  0.93507708  0.84523808     0.01900
C1504       C  0.04627789  0.94993195  0.87740383    -0.00400
C1505       C  0.04993714  0.97929724  0.86921744    -0.12100
C1506       C  0.03244901  0.99387472  0.82900759     0.01800
H1507       H  0.98708222  0.93769623  0.78155934     0.14800
H1508       H  0.06701746  0.99122171  0.89465830     0.14800
C1509       C  0.03890631  0.52408065  0.82744234     0.36500
C1510       C  0.01710058  0.90497951  0.85321685     0.36400
N1511       N  0.04515865  0.54821580  0.82799046    -0.43900
N1512       N  0.01219975  0.88085122  0.85967334    -0.43900
C1513       C  0.96637940  0.50511503  0.20566642    -0.00300
C1514       C  0.94874908  0.48912210  0.16580004    -0.12200
C1515       C  0.93098841  0.50168338  0.12308758     0.01900
C1516       C  0.92946215  0.53179107  0.11819908    -0.00400
C1517       C  0.94591744  0.54817777  0.15804333    -0.12100
C1518       C  0.96446807  0.53565014  0.20053773     0.01800
H1519       H  0.94860672  0.96802161  0.16881816     0.14800
H1520       H  0.94516990  0.57128543  0.15502495     0.14800
C1521       C  0.98246754  0.55576395  0.23392472     0.36500
C1522       C  0.91528491  0.48252867  0.08447502     0.36400
N1523       N  0.99661457  0.57286746  0.25899297    -0.43900
N1524       N  0.90294624  0.46696795  0.05367299    -0.43900
C1525       C  0.92986405  0.53568827  0.87381757    -0.00300
C1526       C  0.94891766  0.55347738  0.84087753    -0.12200
C1527       C  0.96774655  0.54245209  0.79777472     0.01900
C1528       C  0.96889335  0.51217906  0.78828733    -0.00400
C1529       C  0.94922032  0.49490647  0.82261229    -0.12100
C1530       C  0.92961012  0.50615345  0.86341621     0.01800
H1531       H  0.94867773  0.57633293  0.84842695     0.14800
H1532       H  0.94504111  0.97326414  0.81626893     0.14800
C1533       C  0.90994653  0.48652938  0.89484579     0.36500
C1534       C  0.98579745  0.56349272  0.76723865     0.36400
N1535       N  0.89396467  0.47079706  0.91951515    -0.43900
N1536       N  0.99990278  0.58118563  0.74413853    -0.43900
C1537       C  0.77729227  0.54621872  0.87890265    -0.00300
C1538       C  0.74576776  0.55580189  0.88855638    -0.12200
C1539       C  0.71940495  0.54472422  0.85868089     0.01900
C1540       C  0.72450461  0.52423348  0.81687129    -0.00400
C1541       C  0.75601661  0.51405278  0.80848101    -0.12100
C1542       C  0.78229307  0.52475669  0.83920335     0.01800
H1543       H  0.74159201  0.57123452  0.92100668     0.14800
H1544       H  0.76036228  0.49827886  0.77681094     0.14800
C1545       C  0.81430024  0.51403552  0.82815495     0.36500
C1546       C  0.68725641  0.55371145  0.87362697     0.36400
N1547       N  0.83993815  0.50548208  0.81906952    -0.43900
N1548       N  0.66148131  0.56081770  0.88570598    -0.43900
C1549       C  0.77947282  0.53453063  0.09959262    -0.00300
C1550       C  0.74707582  0.53975367  0.08454016    -0.12200
C1551       C  0.72159700  0.53171443  0.11831208     0.01900
C1552       C  0.72809892  0.51732609  0.16772779    -0.00400
C1553       C  0.76018969  0.51054396  0.18179354    -0.12100
C1554       C  0.78600041  0.51928341  0.14845358     0.01800
H1555       H  0.74148710  0.55088038  0.04660897     0.14800
H1556       H  0.76158108  0.99602592  0.21482960     0.14800
C1557       C  0.81868097  0.51400412  0.16720953     0.36500
C1558       C  0.68904262  0.53910882  0.10182798     0.36400
N1559       N  0.84484510  0.50987802  0.18248922    -0.43900
N1560       N  0.66299416  0.54510707  0.08858179    -0.43900
C1561       C  0.93164879  0.93999678  0.36838687    -0.00300
C1562       C  0.96519359  0.93623264  0.36450216    -0.12200
C1563       C  0.98342267  0.94954769  0.32261849     0.01900
C1564       C  0.96834460  0.96805017  0.28321522    -0.00400
C1565       C  0.93409142  0.96938121  0.28550057    -0.12100
C1566       C  0.91607942  0.95549051  0.32629075     0.01800
H1567       H  0.97748057  0.92368351  0.39562356     0.14800
H1568       H  0.92054471  0.98282183  0.25785442     0.14800
C1569       C  0.88130336  0.95732232  0.32237611     0.36500
C1570       C  0.01779758  0.94419944  0.32273428     0.36400
N1571       N  0.85362290  0.95906910  0.31579340    -0.43900
N1572       N  0.04524224  0.93934010  0.32315885    -0.43900
C1573       C  0.96755016  0.97651453  0.71026905    -0.00300
C1574       C  0.93496213  0.98448256  0.70004147    -0.12200
C1575       C  0.91568092  0.97196310  0.65882457     0.01900
C1576       C  0.92839179  0.95078787  0.62355701    -0.00400
C1577       C  0.96044163  0.94218272  0.63328921    -0.12100
C1578       C  0.97992885  0.95469529  0.67500042     0.01800
H1579       H  0.92421074  0.00199614  0.72223543     0.14800
H1580       H  0.97079629  0.92589015  0.60715238     0.14800
C1581       C  0.01249378  0.94406608  0.67932124     0.36500
C1582       C  0.88292015  0.98225769  0.65390522     0.36400
N1583       N  0.03799255  0.93402337  0.68147728    -0.43900
N1584       N  0.85682368  0.99094493  0.65091349    -0.43900
C1585       C  0.72753810  0.97453968  0.66129268    -0.00300
C1586       C  0.72380294  0.94608769  0.64467217    -0.12200
C1587       C  0.74839680  0.93203156  0.61615373     0.01900
C1588       C  0.77684047  0.94713498  0.60129413    -0.00400
C1589       C  0.77958460  0.97619109  0.61566399    -0.12100
C1590       C  0.75547441  0.98982985  0.64583195     0.01800
H1591       H  0.70130088  0.93495107  0.65321650     0.14800
H1592       H  0.80040560  0.98850818  0.60252574     0.14800
C1593       C  0.75944910  0.01975738  0.65903975     0.36500
C1594       C  0.74284398  0.90266527  0.60024131     0.36400
N1595       N  0.76389026  0.54283993  0.67865558    -0.43900
N1596       N  0.73835353  0.87911712  0.58759199    -0.43900
C1597       C  0.73135106  0.97161714  0.32035261    -0.00300
C1598       C  0.75492319  0.98937266  0.34485126    -0.12200
C1599       C  0.78115141  0.97793972  0.37358066     0.01900
C1600       C  0.78393614  0.94806814  0.37872158    -0.00400
C1601       C  0.76148982  0.93022953  0.35142486    -0.12100
C1602       C  0.73559599  0.94178343  0.32143714     0.01800
H1603       H  0.75300778  0.51389611  0.34104387     0.14800
H1604       H  0.76375214  0.90722106  0.35474142     0.14800
C1605       C  0.71321888  0.92256296  0.29417160     0.36500
C1606       C  0.80342653  0.99738023  0.40071542     0.36400
N1607       N  0.69573322  0.90687834  0.27193131    -0.43900
N1608       N  0.82131808  0.01290738  0.42245330    -0.43900
C1609       C  0.74535443  0.72645296  0.69034418    -0.00300
C1610       C  0.72527909  0.70316087  0.70440638    -0.12200
C1611       C  0.69936340  0.69463477  0.67049925     0.01900
C1612       C  0.69304705  0.70954557  0.62135378    -0.00400
C1613       C  0.71088218  0.73454575  0.61048491    -0.12100
C1614       C  0.73734376  0.74265571  0.64334616     0.01800
H1615       H  0.72976613  0.69154220  0.74216082     0.14800
H1616       H  0.70546572  0.74693043  0.57398649     0.14800
C1617       C  0.75695890  0.76641249  0.62507498     0.36500
C1618       C  0.67853540  0.67172403  0.68879635     0.36400
N1619       N  0.77236084  0.78551980  0.60979759    -0.43900
N1620       N  0.66159913  0.65369681  0.70423972    -0.43900
C1621       C  0.75270566  0.77546670  0.83794129    -0.00300
C1622       C  0.72046224  0.76913035  0.82287028    -0.12200
C1623       C  0.69426640  0.77981906  0.85317723     0.01900
C1624       C  0.70017604  0.79772471  0.89904286    -0.00400
C1625       C  0.73267703  0.80453369  0.91269469    -0.12100
C1626       C  0.75865955  0.79339758  0.88322982     0.01800
H1627       H  0.71571965  0.75519436  0.78807655     0.14800
H1628       H  0.73810441  0.81846914  0.94716035     0.14800
C1629       C  0.79127020  0.80095634  0.89988169     0.36500
C1630       C  0.66180634  0.77225801  0.83590924     0.36400
N1631       N  0.81739062  0.80700946  0.91323384    -0.43900
N1632       N  0.63579709  0.76613919  0.82201472    -0.43900
C1633       C  0.83349489  0.78970477  0.69737248    -0.00300
C1634       C  0.82381762  0.81813907  0.70506633    -0.12200
C1635       C  0.83369898  0.83987088  0.66888203     0.01900
C1636       C  0.85353224  0.83340693  0.62357304    -0.00400
C1637       C  0.86410010  0.80521754  0.61677534    -0.12100
C1638       C  0.85440675  0.78345966  0.65307992     0.01800
H1639       H  0.80800846  0.82332525  0.73897969     0.14800
H1640       H  0.87866670  0.79989972  0.58138874     0.14800
C1641       C  0.86427739  0.75458196  0.64128903     0.36500
C1642       C  0.82261234  0.86861384  0.67843288     0.36400
N1643       N  0.87219444  0.73142639  0.63190058    -0.43900
N1644       N  0.81385061  0.89164680  0.68662316    -0.43900
C1645       C  0.83993730  0.70085687  0.81829422    -0.00300
C1646       C  0.85505633  0.70763020  0.86880583    -0.12200
C1647       C  0.86808362  0.68625822  0.90252313     0.01900
C1648       C  0.86561425  0.65738299  0.88666880    -0.00400
C1649       C  0.85565241  0.65104396  0.83290483    -0.12100
C1650       C  0.84447837  0.67269184  0.79771310     0.01800
H1651       H  0.85559051  0.72958564  0.88306937     0.14800
H1652       H  0.85573477  0.62903926  0.81886387     0.14800
C1653       C  0.84028055  0.66558174  0.74041038     0.36500
C1654       C  0.88500476  0.69463544  0.95198386     0.36400
N1655       N  0.83726031  0.65981706  0.69439201    -0.43900
N1656       N  0.89974284  0.70214741  0.98998015    -0.43900
C1657       C  0.75317547  0.78081625  0.16606034    -0.00300
C1658       C  0.72411068  0.78687154  0.19378911    -0.12200
C1659       C  0.69857895  0.80100503  0.16762857     0.01900
C1660       C  0.70209358  0.80996686  0.11308424    -0.00400
C1661       C  0.73157512  0.80552113  0.08617586    -0.12100
C1662       C  0.75709101  0.79113576  0.11206429     0.01800
H1663       H  0.72056699  0.77960465  0.23547792     0.14800
H1664       H  0.73430108  0.81258581  0.04410856     0.14800
C1665       C  0.78702770  0.78779404  0.08259969     0.36500
C1666       C  0.66872235  0.80522721  0.19691104     0.36400
N1667       N  0.81097413  0.78521291  0.05876537    -0.43900
N1668       N  0.64492430  0.80862577  0.22076380    -0.43900
C1669       C  0.74400417  0.73301182  0.31530949    -0.00300
C1670       C  0.75075354  0.73422888  0.37131268    -0.12200
C1671       C  0.72718478  0.72664414  0.40923440     0.01900
C1672       C  0.69533176  0.71987340  0.39115289    -0.00400
C1673       C  0.68817164  0.72009546  0.33477486    -0.12100
C1674       C  0.71265286  0.72551505  0.29662175     0.01800
H1675       H  0.77521959  0.73913697  0.38521988     0.14800
H1676       H  0.66422001  0.71377780  0.32047923     0.14800
C1677       C  0.70572896  0.72130518  0.23893241     0.36500
C1678       C  0.73762945  0.72357295  0.46553199     0.36400
N1679       N  0.70031893  0.71768160  0.19271652    -0.43900
N1680       N  0.74758491  0.72036146  0.50957934    -0.43900
C1681       C  0.83552294  0.78880192  0.30039857    -0.00300
C1682       C  0.85459787  0.78153160  0.34629644    -0.12200
C1683       C  0.86379565  0.80232328  0.38535124     0.01900
C1684       C  0.85353536  0.83087346  0.37878980    -0.00400
C1685       C  0.83694571  0.83837339  0.33039569    -0.12100
C1686       C  0.82815358  0.81781646  0.29128753     0.01800
H1687       H  0.86060500  0.75932792  0.35345946     0.14800
H1688       H  0.82977607  0.86038166  0.32393554     0.14800
C1689       C  0.81121589  0.82720705  0.24249229     0.36500
C1690       C  0.88164056  0.79335594  0.43340583     0.36400
N1691       N  0.79774663  0.83512619  0.20360220    -0.43900
N1692       N  0.89609709  0.78608077  0.47174477    -0.43900
C1693       C  0.83079740  0.69676688  0.18626038    -0.00300
C1694       C  0.82424163  0.66805590  0.20095633    -0.12200
C1695       C  0.83491366  0.64517829  0.16894098     0.01900
C1696       C  0.85377143  0.65033872  0.12202118    -0.00400
C1697       C  0.86470229  0.67825500  0.11226474    -0.12100
C1698       C  0.85339713  0.70138147  0.14348377     0.01800
H1699       H  0.81031890  0.66262389  0.23662515     0.14800
H1700       H  0.88051101  0.68221147  0.07807784     0.14800
C1701       C  0.86464563  0.72969940  0.12945895     0.36500
C1702       C  0.82570292  0.61649096  0.18474333     0.36400
N1703       N  0.87385869  0.75237785  0.11853596    -0.43900
N1704       N  0.81832002  0.59352943  0.19731057    -0.43900
loop_ 
_geom_bond_atom_site_label_1 
_geom_bond_atom_site_label_2 
_geom_bond_distance 
_geom_bond_site_symmetry_2 
_ccdc_geom_bond_type 
C1            C2   1.549       .  S
C1            C7   1.546       .  S
C1            C5   1.544       .  S
C1          C841   1.548       .  S
C2            H9   1.084       .  S
C2            C3   1.376       .  D
C3            C4   1.533       .  S
C3          C805   1.499       .  S
C4            C8   1.525       .  S
C4            C6   1.535       .  S
C4           H10   1.109       .  S
C5           H11   1.086       .  S
C5            C6   1.366       .  D
C6          C829   1.486       .  S
C7           H12   1.080       .  S
C7            C8   1.358       .  D
C8          C817   1.469       .  S
C13          C14   1.545       .  S
C13          C19   1.544       .  S
C13          C17   1.533       .  S
C13         C793   1.541       .  S
C14          H21   1.083       .  S
C14          C15   1.370       .  D
C15          C16   1.538       .  S
C15         C757   1.490       .  S
C16          C20   1.531       .  S
C16          C18   1.550       .  S
C16          H22   1.108       .  S
C17          H23   1.085       .  S
C17          C18   1.369       .  D
C18         C781   1.499       .  S
C19          H24   1.086       .  S
C19          C20   1.362       .  D
C20         C769   1.485       .  S
O25         Cr43   1.988       .  S
O25          C33   1.257       .  A
O26         Cr43   1.963       .  S
O26          C27   1.259       .  A
C27          O28   1.270       .  A
C27         C832   1.484       .  S
O28         Cr44   2.031       .  S
O29         Cr44   2.013       .  S
O29          C30   1.266       .  A
C30          O31   1.267       .  A
C30         C709   1.502       .  S
O31         Cr45   2.010       .  S
O32         Cr45   1.978       .  S
O32          C33   1.259       .  A
C33         C748   1.478       .  S
O34         Cr43   1.974       .  S
O34          C42   1.262       .  A
O35         Cr43   1.994       .  S
O35          C36   1.260       .  A
C36          O37   1.265       .  A
C36         C784   1.486       .  S
O37         Cr44   2.011       .  S
O38         Cr44   2.035       .  S
O38          C39   1.271       .  A
C39          O40   1.260       .  A
C39         C724   1.511       .  S
O40         Cr45   1.976       .  S
O41         Cr45   2.008       .  S
O41          C42   1.267       .  A
C42         C736   1.487       .  S
Cr43         O46   1.779       .  S
Cr44         O46   1.789       .  S
Cr45         O46   1.777       .  S
O47         Cr65   1.988   1_554  S
O47          C55   1.262       .  A
O48         Cr65   1.959   1_554  S
O48          C49   1.257       .  A
C49          O50   1.274       .  A
C49         C844   1.489       .  S
O50         Cr66   2.042       .  S
O51         Cr66   2.005       .  S
O51          C52   1.265       .  A
C52          O53   1.262       .  A
C52         C664   1.508       .  S
O53         Cr67   1.999   1_554  S
O54         Cr67   1.988   1_554  S
O54          C55   1.261       .  A
C55         C697   1.486       .  S
O56         Cr65   1.978       .  S
O56          C64   1.263       .  A
O57         Cr65   2.002       .  S
O57          C58   1.261       .  A
C58          O59   1.262       .  A
C58         C796   1.481       .  S
O59         Cr66   2.003   1_556  S
O60         Cr66   2.034   1_556  S
O60          C61   1.273       .  A
C61          O62   1.258       .  A
C61         C673   1.489       .  S
O62         Cr67   1.961       .  S
O63         Cr67   2.000       .  S
O63          C64   1.265       .  A
C64         C685   1.468       .  S
Cr65         O68   1.767       .  S
Cr66         O68   1.776   1_554  S
Cr67         O68   1.769       .  S
C69         C649   1.574   1_655  S
C69         C721   1.592       .  S
C69        C1489   1.571   1_655  S
C69        C1528   1.579       .  S
O70         Cr88   1.996   1_554  S
O70          C78   1.258       .  A
O71         Cr88   1.960   1_554  S
O71          C72   1.260       .  A
C72          O73   1.272       .  A
C72         C625   1.474       .  S
O73         Cr89   2.020   1_554  S
O74         Cr89   2.000   1_554  S
O74          C75   1.263       .  A
C75          O76   1.267       .  A
C75         C601   1.507       .  S
O76         Cr90   2.000   1_554  S
O77         Cr90   1.994   1_554  S
O77          C78   1.262       .  A
C78         C577   1.486       .  S
O79         Cr88   1.974       .  S
O79          C87   1.262       .  A
O80         Cr88   1.983       .  S
O80          C81   1.257       .  A
C81          O82   1.262       .  A
C81         C613   1.473       .  S
O82         Cr89   1.999       .  S
O83         Cr89   2.026       .  S
O83          C84   1.269       .  A
C84          O85   1.260       .  A
C84         C652   1.492       .  S
O85         Cr90   1.966       .  S
O86         Cr90   2.005       .  S
O86          C87   1.269       .  A
C87         C589   1.477       .  S
Cr88         O91   1.772       .  S
Cr89         O91   1.783       .  S
Cr90         O91   1.762       .  S
O92        Cr110   1.971       .  S
O92         C100   1.259       .  A
O93        Cr110   1.971       .  S
O93          C94   1.253       .  A
C94          O95   1.266       .  A
C94         C553   1.483       .  S
O95        Cr111   2.024       .  S
O96        Cr111   2.009       .  S
O96          C97   1.267       .  A
C97          O98   1.261       .  A
C97         C544   1.494       .  S
O98        Cr112   1.978       .  S
O99        Cr112   2.003       .  S
O99         C100   1.266       .  A
C100        C532   1.468       .  S
O101       Cr110   1.977       .  S
O101        C109   1.256       .  A
O102       Cr110   1.963       .  S
O102        C103   1.262       .  A
C103        O104   1.271       .  A
C103        C568   1.466       .  S
O104       Cr111   2.025       .  S
O105       Cr111   1.998       .  S
O105        C106   1.265       .  A
C106        O107   1.263       .  A
C106        C640   1.479       .  S
O107       Cr112   1.983       .  S
O108       Cr112   2.007       .  S
O108        C109   1.263       .  A
C109        C520   1.490       .  S
Cr110       O113   1.757       .  S
Cr111       O113   1.779       .  S
Cr112       O113   1.769       .  S
C114        C115   1.540       .  S
C114        C120   1.541       .  S
C114        C118   1.531       .  S
C114        C565   1.534       .  S
C115        H122   1.083       .  S
C115        C116   1.361       .  D
C116        C117   1.538       .  S
C116        C493   1.478       .  S
C117        C121   1.537       .  S
C117        C119   1.550       .  S
C117        H123   1.107       .  S
C118        H124   1.086       .  S
C118        C119   1.368       .  D
C119        C616   1.495       .  S
C120        H125   1.086       .  S
C120        C121   1.367       .  D
C121        C505   1.494       .  S
C126        C127   1.537       .  S
C126        C132   1.545       .  S
C126        C130   1.537       .  S
C126        C556   1.542       .  S
C127        H134   1.087       .  S
C127        C128   1.362       .  D
C128        C129   1.531       .  S
C128        C469   1.481       .  S
C129        C133   1.531       .  S
C129        C131   1.544       .  S
C129        H135   1.111       .  S
C130        H136   1.076       .  S
C130        C131   1.371       .  D
C131        C628   1.478       .  S
C132        H137   1.087       .  S
C132        C133   1.365       .  D
C133        C481   1.489       .  S
C138        C604   1.584   1_655  S
C138        C712   1.591       .  S
C138       C1393   1.575   1_655  S
C138       C1513   1.588       .  S
O139       Cr157   1.985       .  S
O139        C147   1.258       .  A
O140       Cr157   1.968       .  S
O140        C141   1.261       .  A
C141        O142   1.268       .  A
C141        C445   1.462       .  S
O142       Cr158   2.016       .  S
O143       Cr158   2.007       .  S
O143        C144   1.265       .  A
C144        O145   1.266       .  A
C144        C436   1.490       .  S
O145       Cr159   2.006       .  S
O146       Cr159   2.003       .  S
O146        C147   1.263       .  A
C147        C508   1.489       .  S
O148       Cr157   1.982       .  S
O148        C156   1.263       .  A
O149       Cr157   1.976       .  S
O149        C150   1.255       .  A
C150        O151   1.267       .  A
C150        C457   1.501       .  S
O151       Cr158   2.022       .  S
O152       Cr158   2.022       .  S
O152        C153   1.268       .  A
C153        O154   1.258       .  A
C153        C421   1.500       .  S
O154       Cr159   1.977       .  S
O155       Cr159   1.995       .  S
O155        C156   1.268       .  A
C156        C472   1.489       .  S
Cr157       O160   1.766       .  S
Cr158       O160   1.782       .  S
Cr159       O160   1.771       .  S
O161       Cr179   1.985   1_556  S
O161        C169   1.264       .  A
O162       Cr179   1.974   1_556  S
O162        C163   1.257       .  A
C163        O164   1.267       .  A
C163        C400   1.484       .  S
O164       Cr180   2.016   1_556  S
O165       Cr180   2.031   1_556  S
O165        C166   1.271       .  A
C166        O167   1.259       .  A
C166        C376   1.501       .  S
O167       Cr181   1.973   1_556  S
O168       Cr181   1.990   1_556  S
O168        C169   1.264       .  A
C169        C496   1.474       .  S
O170       Cr179   1.971       .  S
O170        C178   1.256       .  A
O171       Cr179   1.969       .  S
O171        C172   1.261       .  A
C172        O173   1.269       .  A
C172        C412   1.481       .  S
O173       Cr180   2.030       .  S
O174       Cr180   2.008       .  S
O174        C175   1.266       .  A
C175        O176   1.263       .  A
C175        C385   1.506       .  S
O176       Cr181   1.996       .  S
O177       Cr181   2.002       .  S
O177        C178   1.265       .  A
C178        C484   1.488       .  S
Cr179       O182   1.760       .  S
Cr180       O182   1.780       .  S
Cr181       O182   1.773       .  S
C183        C184   1.552       .  S
C183        C189   1.547       .  S
C183        C187   1.530       .  S
C183        C397   1.538       .  S
C184        H191   1.082       .  S
C184       C1037   1.358   1_545  D
C185        C186   1.524       .  S
C185       C1036   1.359       .  D
C185        C592   1.472       .  S
C186        C188   1.537       .  S
C186       C1042   1.540       .  S
C186        H192   1.109       .  S
C187        H193   1.086       .  S
C187       C1040   1.360   1_545  D
C188       C1039   1.360       .  D
C188        C448   1.475       .  S
C189        H194   1.083       .  S
C189        C190   1.376       .  D
C190       C1038   1.539   1_545  S
C190        C517   1.503       .  S
C195        C196   1.542       .  S
C195        C201   1.549       .  S
C195        C199   1.542       .  S
C195        C409   1.547       .  S
C196        H203   1.081       .  S
C196        C197   1.351       .  D
C197       C1050   1.532   1_545  S
C197        C529   1.473       .  S
C198        C202   1.535       .  S
C198        C200   1.549       .  S
C198       C1049   1.531       .  S
C198        H204   1.106       .  S
C199       H1057   1.085       .  S
C199       C1052   1.373   1_545  D
C200       C1051   1.373       .  D
C200        C460   1.503       .  S
C201        H206   1.086       .  S
C201       C1054   1.374   1_545  D
C202       C1053   1.374       .  D
C202        C580   1.503       .  S
H205       C1051   1.085       .  S
C207        C349   1.571       .  S
C207        C361   1.602       .  S
C207        C373   1.602       .  S
C207        C433   1.605       .  S
C208        C209   1.540       .  S
C208        C214   1.539       .  S
C208        C212   1.548   1_545  S
C208        C325   1.540       .  S
C209        H216   1.087       .  S
C209       C1062   1.354   1_545  D
C210        C211   1.534       .  S
C210       C1061   1.354       .  D
C210        C733   1.478       .  S
C211        C213   1.550       .  S
C211       C1067   1.537       .  S
C211        H217   1.107       .  S
C212       H1070   1.077       .  S
C212       C1065   1.384       .  D
C213       C1064   1.382       .  D
C213        C337   1.500       .  S
C214        H219   1.087       .  S
C214        C215   1.356       .  D
C215       C1063   1.532   1_545  S
C215        C688   1.485       .  S
H218       C1064   1.078       .  S
O220       Cr238   1.987       .  S
O220        C228   1.264       .  A
O221       Cr238   1.970       .  S
O221        C222   1.253       .  A
C222        O223   1.265       .  A
C222        C328   1.484       .  S
O223       Cr239   2.021       .  S
O224       Cr239   2.031       .  S
O224        C225   1.273       .  A
C225        O226   1.258       .  A
C225        C352   1.494       .  S
O226       Cr240   1.961       .  S
O227       Cr240   2.004       .  S
O227        C228   1.266       .  A
C228        C760   1.481       .  S
O229       Cr238   1.977       .  S
O229        C237   1.256       .  A
O230       Cr238   1.960       .  S
O230        C231   1.262       .  A
C231        O232   1.273       .  A
C231        C313   1.489       .  S
O232       Cr239   2.036       .  S
O233       Cr239   2.009       .  S
O233        C234   1.264       .  A
C234        O235   1.265       .  A
C234        C301   1.490       .  S
O235       Cr240   1.988       .  S
O236       Cr240   1.999       .  S
O236        C237   1.263       .  A
C237        C820   1.476       .  S
Cr238       O241   1.749       .  S
Cr239       O241   1.779       .  S
Cr240       O241   1.763       .  S
C242        C243   1.537       .  S
C242        C248   1.535       .  S
C242        C246   1.547       .  S
C242        C316   1.534       .  S
C243        H250   1.086       .  S
C243        C244   1.359       .  D
C244       C1097   1.530   1_545  S
C244        C700   1.478       .  S
C245        C249   1.532       .  S
C245        C247   1.546       .  S
C245       C1096   1.527       .  S
C245        H251   1.111       .  S
C246       H1104   1.083       .  S
C246       C1099   1.373   1_545  D
C247       C1098   1.377       .  D
C247        C289   1.487       .  S
C248        H253   1.087       .  S
C248       C1101   1.363   1_545  D
C249       C1100   1.360       .  D
C249        C745   1.482       .  S
H252       C1098   1.084       .  S
O254       Cr272   1.981       .  S
O254        C262   1.259       .  A
O255       Cr272   1.953       .  S
O255        C256   1.258       .  A
C256        O257   1.270       .  A
C256        C340   1.490       .  S
O257       Cr273   2.031       .  S
O258       Cr273   1.998       .  S
O258        C259   1.264       .  A
C259        O260   1.269       .  A
C259        C364   1.512       .  S
O260       Cr274   2.014   1_556  S
O261       Cr274   2.011   1_556  S
O261        C262   1.266       .  A
C262        C772   1.492       .  S
O263       Cr272   1.977   1_554  S
O263        C271   1.262       .  A
O264       Cr272   1.990   1_554  S
O264        C265   1.260       .  A
C265        O266   1.264       .  A
C265        C292   1.489       .  S
O266       Cr273   2.008   1_554  S
O267       Cr273   2.014   1_554  S
O267        C268   1.268       .  A
C268        O269   1.265       .  A
C268        C280   1.506       .  S
O269       Cr274   1.998       .  S
O270       Cr274   2.009       .  S
O270        C271   1.267       .  A
C271        C808   1.468       .  S
Cr272       O275   1.766       .  S
Cr273       O275   1.777       .  S
Cr274       O275   1.771   1_554  S
C276        C277   1.606       .  S
C276        C304   1.586       .  S
C276        C388   1.604       .  S
C276        C424   1.578       .  S
C277        C278   1.421       .  A
C277        C282   1.440       .  A
C278        C279   1.404       .  A
C278        H283   1.070       .  S
C279        C280   1.410       .  A
C279        C286   1.445       .  S
C280        C281   1.403       .  A
C281        C282   1.414       .  A
C281        H284   1.085       .  S
C282        C285   1.443       .  S
C285        N287   1.158       .  T
C286        N288   1.157       .  T
C289        C290   1.399       .  A
C289        C294   1.410       .  A
C290        C291   1.397       .  A
C290        H295   1.081       .  S
C291        C292   1.417       .  A
C291        C298   1.447       .  S
C292        C293   1.408       .  A
C293        C294   1.411       .  A
C293        H296   1.084       .  S
C294        C297   1.442       .  S
C297        N299   1.157       .  T
C298        N300   1.158   1_554  T
C301        C302   1.392       .  A
C301        C306   1.413       .  A
C302        C303   1.391       .  A
C302        H307   1.087       .  S
C303        C304   1.437       .  A
C303        C310   1.444       .  S
C304        C305   1.422       .  A
C305        C306   1.417       .  A
C305        H308   1.084       .  S
C306        C309   1.442       .  S
C309        N311   1.157       .  T
C310        N312   1.158       .  T
C313        C314   1.401       .  A
C313        C318   1.415       .  A
C314        C315   1.388       .  A
C314        H319   1.085       .  S
C315        C316   1.422       .  A
C315        C322   1.448       .  S
C316        C317   1.412       .  A
C317        C318   1.411       .  A
C317        H320   1.080       .  S
C318        C321   1.443       .  S
C321        N323   1.157       .  T
C322        N324   1.157       .  T
C325        C326   1.407       .  A
C325        C330   1.424       .  A
C326        C327   1.378       .  A
C326        H331   1.087       .  S
C327        C328   1.413       .  A
C327        C334   1.448       .  S
C328        C329   1.408       .  A
C329        C330   1.419       .  A
C329        H332   1.084       .  S
C330        C333   1.439       .  S
C333        N335   1.158       .  T
C334        N336   1.157       .  T
C337        C338   1.412       .  A
C337        C342   1.417       .  A
C338        C339   1.409       .  A
C338        H343   1.084       .  S
C339        C340   1.413       .  A
C339        C346   1.443       .  S
C340        C341   1.401       .  A
C341        C342   1.392       .  A
C341        H344   1.086       .  S
C342        C345   1.440       .  S
C345        N347   1.156       .  T
C346        N348   1.157       .  T
C349        C350   1.414       .  A
C349        C354   1.432       .  A
C350        C351   1.400       .  A
C350        H355   1.079       .  S
C351        C352   1.416       .  A
C351        C358   1.446       .  S
C352        C353   1.400       .  A
C353        C354   1.405       .  A
C353        H356   1.085       .  S
C354        C357   1.444       .  S
C357        N359   1.157       .  T
C358        N360   1.157       .  T
C361        C362   1.426       .  A
C361        C366   1.442       .  A
C362        C363   1.413       .  A
C362        H367   1.078       .  S
C363        C364   1.413       .  A
C363        C370   1.444       .  S
C364        C365   1.400       .  A
C365        C366   1.406       .  A
C365        H368   1.086       .  S
C366        C369   1.442       .  S
C369        N371   1.158       .  T
C370        N372   1.157       .  T
C373        C374   1.420       .  A
C373        C378   1.425       .  A
C374        C375   1.409       .  A
C374        H379   1.080       .  S
C375        C376   1.409       .  A
C375        C382   1.444       .  S
C376        C377   1.405       .  A
C377        C378   1.406       .  A
C377        H380   1.085       .  S
C378        C381   1.442       .  S
C381        N383   1.158       .  T
C382        N384   1.157       .  T
C385        C386   1.407       .  A
C385        C390   1.415       .  A
C386        C387   1.416       .  A
C386        H391   1.085       .  S
C387        C388   1.434       .  A
C387        C394   1.443       .  S
C388        C389   1.415       .  A
C389        C390   1.398       .  A
C389        H392   1.078       .  S
C390        C393   1.446       .  S
C393        N395   1.158       .  T
C394        N396   1.158       .  T
C397        C398   1.401       .  A
C397        C402   1.422       .  A
C398        C399   1.388       .  A
C398        H403   1.078       .  S
C399        C400   1.416       .  A
C399        C406   1.441       .  S
C400        C401   1.404       .  A
C401        C402   1.412       .  A
C401        H404   1.084       .  S
C402        C405   1.443       .  S
C405        N407   1.157       .  T
C406        N408   1.155   1_556  T
C409        C410   1.415       .  A
C409        C414   1.418       .  A
C410        C411   1.397       .  A
C410        H415   1.078       .  S
C411        C412   1.404       .  A
C411        C418   1.446       .  S
C412        C413   1.404       .  A
C413        C414   1.410       .  A
C413        H416   1.084       .  S
C414        C417   1.444       .  S
C417       N1271   1.157   1_545  T
C418        N420   1.157       .  T
N419       C1269   1.157       .  T
C421        C422   1.408       .  A
C421        C426   1.410       .  A
C422        C423   1.417       .  A
C422        H427   1.085       .  S
C423        C424   1.432       .  A
C423        C430   1.441       .  S
C424        C425   1.418       .  A
C425        C426   1.396       .  A
C425        H428   1.082       .  S
C426        C429   1.445       .  S
C429        N431   1.157       .  T
C430        N432   1.158       .  T
C433        C434   1.417       .  A
C433        C438   1.441       .  A
C434        C435   1.416       .  A
C434        H439   1.083       .  S
C435        C436   1.410       .  A
C435        C442   1.443       .  S
C436        C437   1.391       .  A
C437        C438   1.403       .  A
C437        H440   1.086       .  S
C438        C441   1.443       .  S
C441        N443   1.158       .  T
C442        N444   1.157       .  T
C445        C446   1.400       .  A
C445        C450   1.405       .  A
C446        C447   1.393       .  A
C446        H451   1.083       .  S
C447        C448   1.406       .  A
C447        C454   1.444       .  S
C448        C449   1.407       .  A
C449        C450   1.401       .  A
C449        H452   1.085       .  S
C450        C453   1.442       .  S
C453        N455   1.157       .  T
C454        N456   1.157       .  T
C457        C458   1.410       .  A
C457        C462   1.424       .  A
C458        C459   1.415       .  A
C458        H463   1.084       .  S
C459        C460   1.417       .  A
C459        C466   1.442       .  S
C460        C461   1.397       .  A
C461        C462   1.390       .  A
C461        H464   1.076       .  S
C462        C465   1.448       .  S
C465        N467   1.158       .  T
C466        N468   1.157       .  T
C469        C470   1.403       .  A
C469        C474   1.410       .  A
C470        C471   1.406       .  A
C470        H475   1.083       .  S
C471        C472   1.418       .  A
C471        C478   1.444       .  S
C472        C473   1.407       .  A
C473        C474   1.390       .  A
C473        H476   1.084       .  S
C474        C477   1.445       .  S
C477        N479   1.157       .  T
C478        N480   1.157       .  T
C481        C482   1.397       .  A
C481        C486   1.417       .  A
C482        C483   1.392       .  A
C482        H487   1.086       .  S
C483        C484   1.423       .  A
C483        C490   1.447       .  S
C484        C485   1.403       .  A
C485        C486   1.408       .  A
C485        H488   1.085       .  S
C486        C489   1.440       .  S
C489        N491   1.157       .  T
C490        N492   1.157       .  T
C493        C494   1.409       .  A
C493        C498   1.406       .  A
C494        C495   1.399       .  A
C494        H499   1.085       .  S
C495        C496   1.408       .  A
C495        C502   1.444       .  S
C496        C497   1.408       .  A
C497        C498   1.395       .  A
C497        H500   1.085       .  S
C498        C501   1.445       .  S
C501        N503   1.157       .  T
C502        N504   1.157       .  T
C505        C506   1.399       .  A
C505        C510   1.418       .  A
C506        C507   1.393       .  A
C506        H511   1.085       .  S
C507        C508   1.419       .  A
C507        C514   1.445       .  S
C508        C509   1.405       .  A
C509        C510   1.411       .  A
C509        H512   1.085       .  S
C510        C513   1.441       .  S
C513        N515   1.157       .  T
C514        N516   1.157       .  T
C517        C518   1.414       .  A
C517        C522   1.414       .  A
C518        C519   1.404       .  A
C518       H1375   1.081   1_545  S
C519        C520   1.408       .  A
C519        C526   1.444       .  S
C520        C521   1.409       .  A
C521        C522   1.399       .  A
C521        H524   1.085       .  S
C522        C525   1.443       .  S
H523       C1370   1.082       .  S
C525        N527   1.157       .  T
C526       N1380   1.157   1_545  T
N528       C1378   1.157       .  T
C529        C530   1.396       .  A
C529        C534   1.413       .  A
C530        C531   1.393       .  A
C530       H1387   1.080       .  S
C531        C532   1.411       .  A
C531        C538   1.443       .  S
C532        C533   1.402       .  A
C533        C534   1.399       .  A
C533        H536   1.085       .  S
C534        C537   1.445       .  S
H535       C1382   1.079       .  S
C537        N539   1.157       .  T
C538       N1392   1.156       .  T
N540       C1390   1.157       .  T
C541        C990   1.576   1_445  S
C541        C542   1.421       .  A
C541        C546   1.430   1_455  A
C542        C543   1.399       .  A
C542        H547   1.078   1_545  S
C543        C544   1.410       .  A
C543        C550   1.446       .  S
C544        C545   1.404       .  A
C545        C546   1.406   1_455  A
C545        H548   1.085       .  S
C546        C549   1.445       .  S
C549        N551   1.157       .  T
C550        N552   1.157       .  T
C553        C554   1.404       .  A
C553        C558   1.413       .  A
C554        C555   1.416       .  A
C554        H559   1.085       .  S
C555        C556   1.427       .  A
C555        C562   1.439       .  S
C556        C557   1.405       .  A
C557        C558   1.383       .  A
C557        H560   1.084       .  S
C558        C561   1.445       .  S
C561        N563   1.157       .  T
C562        N564   1.158       .  T
C565        C566   1.412       .  A
C565        C570   1.420       .  A
C566        C567   1.396       .  A
C566        H571   1.080       .  S
C567        C568   1.403       .  A
C567        C574   1.445       .  S
C568        C569   1.400       .  A
C569        C570   1.401       .  A
C569        H572   1.085       .  S
C570        C573   1.445       .  S
C573        N575   1.157       .  T
C574        N576   1.157       .  T
C577        C578   1.397       .  A
C577        C582   1.417       .  A
C578        C579   1.402       .  A
C578        H583   1.085       .  S
C579        C580   1.424       .  A
C579        C586   1.440       .  S
C580        C581   1.405       .  A
C581        C582   1.402       .  A
C581        H584   1.085       .  S
C582        C585   1.445       .  S
C585        N587   1.157   1_554  T
C586        N588   1.157       .  T
C589        C590   1.408       .  A
C589        C594   1.413       .  A
C590        C591   1.402       .  A
C590        H595   1.084       .  S
C591        C592   1.406       .  A
C591        C598   1.444       .  S
C592        C593   1.399       .  A
C593        C594   1.394       .  A
C593        H596   1.085       .  S
C594        C597   1.445       .  S
C597        N599   1.157       .  T
C598        N600   1.157       .  T
C601        C602   1.400       .  A
C601        C606   1.417       .  A
C602        C603   1.396       .  A
C602        H607   1.085       .  S
C603        C604   1.432       .  A
C603        C610   1.444       .  S
C604        C605   1.420       .  A
C605        C606   1.415       .  A
C605        H608   1.081   1_455  S
C606        C609   1.443       .  S
C609        N611   1.157       .  T
C610        N612   1.157       .  T
C613        C614   1.402       .  A
C613        C618   1.406       .  A
C614        C615   1.399       .  A
C614        H619   1.085       .  S
C615        C616   1.414       .  A
C615        C622   1.443       .  S
C616        C617   1.411       .  A
C617        C618   1.404       .  A
C617        H620   1.084       .  S
C618        C621   1.444       .  S
C621        N623   1.157       .  T
C622        N624   1.157       .  T
C625        C626   1.403       .  A
C625        C630   1.413       .  A
C626        C627   1.399       .  A
C626        H631   1.085       .  S
C627        C628   1.413       .  A
C627        C634   1.445       .  S
C628        C629   1.400       .  A
C629        C630   1.397       .  A
C629        H632   1.084       .  S
C630        C633   1.445       .  S
C633        N635   1.157       .  T
C634        N636   1.157       .  T
C637        C921   1.572   1_445  S
C637        C638   1.423   1_455  A
C637        C642   1.438       .  A
C638        C639   1.407   1_655  A
C638        H643   1.083       .  S
C639        C640   1.402       .  A
C639        C646   1.443   1_455  S
C640        C641   1.395       .  A
C641        C642   1.397       .  A
C641        H644   1.087       .  S
C642       C1497   1.444   1_545  S
C645       C1494   1.444       .  S
C645        N647   1.158       .  T
C646        N648   1.157       .  T
C649        C650   1.420       .  A
C649        C654   1.434       .  A
C650        C651   1.414       .  A
C650        H655   1.081   1_455  S
C651        C652   1.411       .  A
C651        C658   1.443       .  S
C652        C653   1.396       .  A
C653        C654   1.395       .  A
C653        H656   1.086       .  S
C654       C1509   1.444       .  S
C657       C1506   1.444   1_545  S
C657        N659   1.157       .  T
C658        N660   1.157       .  T
C661        C990   1.588   1_545  S
C661        C662   1.419   1_545  A
C661        C666   1.437       .  A
C662        C663   1.399   1_565  A
C662       H1519   1.085       .  S
C663        C664   1.416       .  A
C663        C670   1.445   1_545  S
C664        C665   1.405       .  A
C665        C666   1.413       .  A
C665        H668   1.085       .  S
C666        C669   1.441       .  S
H667       C1514   1.085       .  S
C669        N671   1.158       .  T
C670        N672   1.157       .  T
C673        C674   1.401       .  A
C673        C678   1.407       .  A
C674        C675   1.413       .  A
C674        H679   1.085       .  S
C675        C676   1.437       .  A
C675        C682   1.441       .  S
C676        C921   1.584   1_545  S
C676        C677   1.420   1_545  A
C677        C678   1.394   1_565  A
C677       H1532   1.084       .  S
C678        C681   1.446   1_545  S
H680       C1529   1.084       .  S
C681        N683   1.157       .  T
C682        N684   1.158   1_655  T
C685        C686   1.401       .  A
C685        C690   1.409       .  A
C686        C687   1.398       .  A
C686        H691   1.085       .  S
C687        C688   1.413       .  A
C687        C694   1.444       .  S
C688        C689   1.405       .  A
C689        C690   1.400       .  A
C689        H692   1.084       .  S
C690        C693   1.444       .  S
C693        N695   1.157       .  T
C694        N696   1.157       .  T
C697        C698   1.410       .  A
C697        C702   1.415       .  A
C698        C699   1.393       .  A
C698        H703   1.085       .  S
C699        C700   1.406       .  A
C699        C706   1.445       .  S
C700        C701   1.404       .  A
C701        C702   1.403       .  A
C701       H1556   1.085   1_545  S
C702        C705   1.444       .  S
H704       C1553   1.085       .  S
C705        N707   1.158       .  T
C706        N708   1.157       .  T
C709        C710   1.402       .  A
C709        C714   1.411       .  A
C710        C711   1.416       .  A
C710        H715   1.085       .  S
C711        C712   1.435       .  A
C711        C718   1.443   1_655  S
C712        C713   1.418       .  A
C713        C714   1.405       .  A
C713        H716   1.078       .  S
C714        C717   1.442       .  S
C717        N719   1.157       .  T
C718        N720   1.157       .  T
C721        C722   1.420       .  A
C721        C726   1.432       .  A
C722        C723   1.399       .  A
C722        H727   1.080       .  S
C723        C724   1.414       .  A
C723        C730   1.443       .  S
C724        C725   1.407       .  A
C725        C726   1.417       .  A
C725        H728   1.084       .  S
C726        C729   1.442   1_655  S
C729        N731   1.157       .  T
C730        N732   1.156       .  T
C733        C734   1.398       .  A
C733        C738   1.408       .  A
C734        C735   1.401       .  A
C734        H739   1.084       .  S
C735        C736   1.417       .  A
C735        C742   1.444       .  S
C736        C737   1.407       .  A
C737        C738   1.400       .  A
C737        H740   1.082       .  S
C738        C741   1.445       .  S
C741       N1595   1.157       .  T
C742        N744   1.157       .  T
N743       C1593   1.157       .  T
C745        C746   1.405       .  A
C745        C750   1.408       .  A
C746        C747   1.397       .  A
C746       H1603   1.084       .  S
C747        C748   1.411       .  A
C747        C754   1.445       .  S
C748        C749   1.407       .  A
C749        C750   1.402       .  A
C749        H752   1.085       .  S
C750        C753   1.443       .  S
H751       C1598   1.084   1_545  S
C753        N755   1.157       .  T
C754        N756   1.157       .  T
C757        C758   1.409       .  A
C757        C762   1.412       .  A
C758        C759   1.402       .  A
C758        H763   1.084       .  S
C759        C760   1.409       .  A
C759        C766   1.444       .  S
C760        C761   1.405       .  A
C761        C762   1.397       .  A
C761        H764   1.085       .  S
C762        C765   1.444       .  S
C765        N767   1.157       .  T
C766        N768   1.157       .  T
C769        C770   1.408       .  A
C769        C774   1.405       .  A
C770        C771   1.410       .  A
C770        H775   1.085       .  S
C771        C772   1.414       .  A
C771        C778   1.444       .  S
C772        C773   1.410       .  A
C773        C774   1.395       .  A
C773        H776   1.083       .  S
C774        C777   1.445       .  S
C777        N779   1.157       .  T
C778        N780   1.158       .  T
C781        C782   1.404       .  A
C781        C786   1.419       .  A
C782        C783   1.405       .  A
C782        H787   1.085       .  S
C783        C784   1.413       .  A
C783        C790   1.443       .  S
C784        C785   1.402       .  A
C785        C786   1.407       .  A
C785        H788   1.083       .  S
C786        C789   1.444       .  S
C789        N791   1.157       .  T
C790        N792   1.157       .  T
C793        C794   1.407       .  A
C793        C798   1.421       .  A
C794        C795   1.397       .  A
C794        H799   1.084       .  S
C795        C796   1.408       .  A
C795        C802   1.438       .  S
C796        C797   1.403       .  A
C797        C798   1.409       .  A
C797        H800   1.085       .  S
C798        C801   1.442       .  S
C801        N803   1.157       .  T
C802        N804   1.155   1_556  T
C805        C806   1.414       .  A
C805        C810   1.414       .  A
C806        C807   1.400       .  A
C806        H811   1.081       .  S
C807        C808   1.401       .  A
C807        C814   1.444       .  S
C808        C809   1.402       .  A
C809        C810   1.401       .  A
C809        H812   1.083       .  S
C810        C813   1.444       .  S
C813        N815   1.157       .  T
C814        N816   1.157       .  T
C817        C818   1.391       .  A
C817        C822   1.412       .  A
C818        C819   1.392       .  A
C818        H823   1.086       .  S
C819        C820   1.420       .  A
C819        C826   1.443       .  S
C820        C821   1.403       .  A
C821        C822   1.403       .  A
C821        H824   1.085       .  S
C822        C825   1.443       .  S
C825        N827   1.157       .  T
C826        N828   1.157       .  T
C829        C830   1.405       .  A
C829        C834   1.410       .  A
C830        C831   1.407       .  A
C830        H835   1.085       .  S
C831        C832   1.414       .  A
C831        C838   1.442       .  S
C832        C833   1.404       .  A
C833        C834   1.397       .  A
C833        H836   1.085       .  S
C834        C837   1.444       .  S
C837        N839   1.157       .  T
C838        N840   1.157       .  T
C841        C842   1.415       .  A
C841        C846   1.421       .  A
C842        C843   1.401       .  A
C842        H847   1.075       .  S
C843        C844   1.410       .  A
C843        C850   1.447       .  S
C844        C845   1.399       .  A
C845        C846   1.406       .  A
C845        H848   1.078       .  S
C846        C849   1.444       .  S
C849        N851   1.157       .  T
C850        N852   1.158       .  T
C853        C854   1.552       .  S
C853        C859   1.546       .  S
C853        C857   1.545       .  S
C853       C1693   1.547       .  S
C854        H861   1.085       .  S
C854        C855   1.375       .  D
C855        C856   1.530       .  S
C855       C1657   1.493       .  S
C856        C860   1.520       .  S
C856        C858   1.535       .  S
C856        H862   1.110       .  S
C857        H863   1.086       .  S
C857        C858   1.368       .  D
C858       C1681   1.488       .  S
C859        H864   1.080       .  S
C859        C860   1.354       .  D
C860       C1669   1.464       .  S
C865        C866   1.546       .  S
C865        C871   1.546       .  S
C865        C869   1.536       .  S
C865       C1645   1.546       .  S
C866        H873   1.081       .  S
C866        C867   1.368       .  D
C867        C868   1.536       .  S
C867       C1609   1.493       .  S
C868        C872   1.533       .  S
C868        C870   1.549       .  S
C868        H874   1.109       .  S
C869        H875   1.086       .  S
C869        C870   1.370       .  D
C870       C1633   1.500       .  S
C871        H876   1.086       .  S
C871        C872   1.365       .  D
C872       C1621   1.487       .  S
O877       Cr895   1.992       .  S
O877        C885   1.259       .  A
O878       Cr895   1.959       .  S
O878        C879   1.258       .  A
C879        O880   1.271       .  A
C879       C1684   1.486       .  S
O880       Cr896   2.033       .  S
O881       Cr896   2.012       .  S
O881        C882   1.265       .  A
C882        O883   1.265       .  A
C882       C1561   1.500       .  S
O883       Cr897   2.008       .  S
O884       Cr897   1.972       .  S
O884        C885   1.257       .  A
C885       C1600   1.474       .  S
O886       Cr895   1.977       .  S
O886        C894   1.262       .  A
O887       Cr895   1.997       .  S
O887        C888   1.260       .  A
C888        O889   1.265       .  A
C888       C1636   1.486       .  S
O889       Cr896   2.010       .  S
O890       Cr896   2.038       .  S
O890        C891   1.273       .  A
C891        O892   1.259       .  A
C891       C1576   1.511       .  S
O892       Cr897   1.972       .  S
O893       Cr897   2.005       .  S
O893        C894   1.266       .  A
C894       C1588   1.487       .  S
Cr895       O898   1.778       .  S
Cr896       O898   1.785       .  S
Cr897       O898   1.775       .  S
O899       Cr917   1.985   1_554  S
O899        C907   1.263       .  A
O900       Cr917   1.963   1_554  S
O900        C901   1.258       .  A
C901        O902   1.271       .  A
C901       C1696   1.486       .  S
O902       Cr918   2.033       .  S
O903       Cr918   2.010       .  S
O903        C904   1.266       .  A
C904        O905   1.262       .  A
C904       C1516   1.509       .  S
O905       Cr919   2.000   1_554  S
O906       Cr919   1.985   1_554  S
O906        C907   1.261       .  A
C907       C1549   1.480       .  S
O908       Cr917   1.985       .  S
O908        C916   1.264       .  A
O909       Cr917   2.003       .  S
O909        C910   1.263       .  A
C910        O911   1.263       .  A
C910       C1648   1.481       .  S
O911       Cr918   2.002   1_556  S
O912       Cr918   2.028   1_556  S
O912        C913   1.272       .  A
C913        O914   1.257       .  A
C913       C1525   1.481       .  S
O914       Cr919   1.958       .  S
O915       Cr919   2.001       .  S
O915        C916   1.263       .  A
C916       C1537   1.474       .  S
Cr917       O920   1.766       .  S
Cr918       O920   1.779   1_554  S
Cr919       O920   1.772       .  S
C921       C1501   1.572   1_655  S
C921       C1573   1.590       .  S
O922       Cr940   1.998   1_554  S
O922        C930   1.258       .  A
O923       Cr940   1.957   1_554  S
O923        C924   1.260       .  A
C924        O925   1.272       .  A
C924       C1477   1.472       .  S
O925       Cr941   2.021   1_554  S
O926       Cr941   1.998   1_554  S
O926        C927   1.263       .  A
C927        O928   1.267       .  A
C927       C1453   1.505       .  S
O928       Cr942   2.000   1_554  S
O929       Cr942   1.996   1_554  S
O929        C930   1.262       .  A
C930       C1429   1.489       .  S
O931       Cr940   1.970       .  S
O931        C939   1.261       .  A
O932       Cr940   1.985       .  S
O932        C933   1.258       .  A
C933        O934   1.262       .  A
C933       C1465   1.476       .  S
O934       Cr941   2.003       .  S
O935       Cr941   2.026       .  S
O935        C936   1.269       .  A
C936        O937   1.260       .  A
C936       C1504   1.493       .  S
O937       Cr942   1.966       .  S
O938       Cr942   2.005       .  S
O938        C939   1.269       .  A
C939       C1441   1.473       .  S
Cr940       O943   1.771       .  S
Cr941       O943   1.783       .  S
Cr942       O943   1.762       .  S
O944       Cr962   1.971       .  S
O944        C952   1.259       .  A
O945       Cr962   1.971       .  S
O945        C946   1.252       .  A
C946        O947   1.265       .  A
C946       C1405   1.483       .  S
O947       Cr963   2.023       .  S
O948       Cr963   2.018       .  S
O948        C949   1.269       .  A
C949        O950   1.260       .  A
C949       C1396   1.493       .  S
O950       Cr964   1.971       .  S
O951       Cr964   2.001       .  S
O951        C952   1.265       .  A
C952       C1384   1.467       .  S
O953       Cr962   1.976       .  S
O953        C961   1.256       .  A
O954       Cr962   1.961       .  S
O954        C955   1.262       .  A
C955        O956   1.273       .  A
C955       C1420   1.471       .  S
O956       Cr963   2.033       .  S
O957       Cr963   1.997       .  S
O957        C958   1.265       .  A
C958        O959   1.261       .  A
C958       C1492   1.474       .  S
O959       Cr964   1.979       .  S
O960       Cr964   2.005       .  S
O960        C961   1.262       .  A
C961       C1372   1.486       .  S
Cr962       O965   1.756       .  S
Cr963       O965   1.777       .  S
Cr964       O965   1.769       .  S
C966        C967   1.544       .  S
C966        C972   1.543       .  S
C966        C970   1.539       .  S
C966       C1417   1.540       .  S
C967        H974   1.081       .  S
C967        C968   1.362       .  D
C968        C969   1.536       .  S
C968       C1345   1.484       .  S
C969        C973   1.532       .  S
C969        C971   1.549       .  S
C969        H975   1.105       .  S
C970        H976   1.085       .  S
C970        C971   1.374       .  D
C971       C1468   1.507       .  S
C972        H977   1.086       .  S
C972        C973   1.359       .  D
C973       C1357   1.478       .  S
C978        C979   1.535       .  S
C978        C984   1.546       .  S
C978        C982   1.536       .  S
C978       C1408   1.541       .  S
C979        H986   1.087       .  S
C979        C980   1.360       .  D
C980        C981   1.530       .  S
C980       C1321   1.478       .  S
C981        C985   1.530       .  S
C981        C983   1.543       .  S
C981        H987   1.111       .  S
C982        H988   1.078       .  S
C982        C983   1.370       .  D
C983       C1480   1.477       .  S
C984        H989   1.087       .  S
C984        C985   1.366       .  D
C985       C1333   1.486       .  S
C990       C1456   1.581   1_655  S
C990       C1564   1.589       .  S
O991      Cr1009   1.984       .  S
O991        C999   1.258       .  A
O992      Cr1009   1.967       .  S
O992        C993   1.260       .  A
C993        O994   1.267       .  A
C993       C1297   1.459       .  S
O994      Cr1010   2.011       .  S
O995      Cr1010   2.007       .  S
O995        C996   1.264       .  A
C996        O997   1.266       .  A
C996       C1288   1.490       .  S
O997      Cr1011   2.007       .  S
O998      Cr1011   2.000       .  S
O998        C999   1.262       .  A
C999       C1360   1.490       .  S
O1000     Cr1009   1.976       .  S
O1000      C1008   1.262       .  A
O1001     Cr1009   1.982       .  S
O1001      C1002   1.257       .  A
C1002      O1003   1.267       .  A
C1002      C1309   1.504       .  S
O1003     Cr1010   2.021       .  S
O1004     Cr1010   2.020       .  S
O1004      C1005   1.269       .  A
C1005      O1006   1.259       .  A
C1005      C1273   1.498       .  S
O1006     Cr1011   1.979       .  S
O1007     Cr1011   1.999       .  S
O1007      C1008   1.269       .  A
C1008      C1324   1.487       .  S
Cr1009     O1012   1.763       .  S
Cr1010     O1012   1.778       .  S
Cr1011     O1012   1.770       .  S
O1013     Cr1031   1.984   1_556  S
O1013      C1021   1.265       .  A
O1014     Cr1031   1.977   1_556  S
O1014      C1015   1.257       .  A
C1015      O1016   1.266       .  A
C1015      C1252   1.481       .  S
O1016     Cr1032   2.012   1_556  S
O1017     Cr1032   2.034   1_556  S
O1017      C1018   1.272       .  A
C1018      O1019   1.259       .  A
C1018      C1228   1.506       .  S
O1019     Cr1033   1.975       .  S
O1020     Cr1033   1.993       .  S
O1020      C1021   1.265       .  A
C1021      C1348   1.478       .  S
O1022     Cr1031   1.968       .  S
O1022      C1030   1.255       .  A
O1023     Cr1031   1.967       .  S
O1023      C1024   1.260       .  A
C1024      O1025   1.271       .  A
C1024      C1264   1.484       .  S
O1025     Cr1032   2.035       .  S
O1026     Cr1032   2.003       .  S
O1026      C1027   1.265       .  A
C1027      O1028   1.265       .  A
C1027      C1237   1.505       .  S
O1028     Cr1033   2.000   1_554  S
O1029     Cr1033   2.003   1_554  S
O1029      C1030   1.265       .  A
C1030      C1336   1.486       .  S
Cr1031     O1034   1.761       .  S
Cr1032     O1034   1.778       .  S
Cr1033     O1034   1.772   1_556  S
C1035      C1036   1.551       .  S
C1035      C1041   1.544       .  S
C1035      C1039   1.528       .  S
C1035      C1249   1.536       .  S
C1036      H1043   1.083       .  S
C1037      C1038   1.522       .  S
C1037      C1444   1.470       .  S
C1038      C1040   1.535       .  S
C1038      H1044   1.109       .  S
C1039      H1045   1.086       .  S
C1040      C1300   1.473       .  S
C1041      H1046   1.083       .  S
C1041      C1042   1.375       .  D
C1042      C1369   1.501       .  S
C1047      C1048   1.543       .  S
C1047      C1053   1.549       .  S
C1047      C1051   1.542       .  S
C1047      C1261   1.548       .  S
C1048      H1055   1.080       .  S
C1048      C1049   1.352       .  D
C1049      C1381   1.473       .  S
C1050      C1054   1.538       .  S
C1050      C1052   1.549       .  S
C1050      H1056   1.107       .  S
C1052      C1312   1.504       .  S
C1053      H1058   1.086       .  S
C1054      C1432   1.504       .  S
C1059      C1201   1.570       .  S
C1059      C1213   1.605       .  S
C1059      C1225   1.603       .  S
C1059      C1285   1.605       .  S
C1060      C1061   1.538       .  S
C1060      C1066   1.540       .  S
C1060      C1064   1.548       .  S
C1060      C1177   1.541       .  S
C1061      H1068   1.087       .  S
C1062      C1063   1.532       .  S
C1062      C1585   1.478       .  S
C1063      C1065   1.549       .  S
C1063      H1069   1.106       .  S
C1065      C1189   1.501       .  S
C1066      H1071   1.086       .  S
C1066      C1067   1.358       .  D
C1067      C1540   1.491       .  S
O1072     Cr1090   1.991       .  S
O1072      C1080   1.264       .  A
O1073     Cr1090   1.971       .  S
O1073      C1074   1.253       .  A
C1074      O1075   1.263       .  A
C1074      C1180   1.484       .  S
O1075     Cr1091   2.016       .  S
O1076     Cr1091   2.028       .  S
O1076      C1077   1.273       .  A
C1077      O1078   1.257       .  A
C1077      C1204   1.493       .  S
O1078     Cr1092   1.957       .  S
O1079     Cr1092   2.009       .  S
O1079      C1080   1.267       .  A
C1080      C1612   1.486       .  S
O1081     Cr1090   1.983       .  S
O1081      C1089   1.257       .  A
O1082     Cr1090   1.965       .  S
O1082      C1083   1.265       .  A
C1083      O1084   1.273       .  A
C1083      C1165   1.493       .  S
O1084     Cr1091   2.032       .  S
O1085     Cr1091   2.011       .  S
O1085      C1086   1.263       .  A
C1086      O1087   1.264       .  A
C1086      C1153   1.493       .  S
O1087     Cr1092   1.991       .  S
O1088     Cr1092   1.992       .  S
O1088      C1089   1.262       .  A
C1089      C1672   1.469       .  S
Cr1090     O1093   1.753       .  S
Cr1091     O1093   1.779       .  S
Cr1092     O1093   1.764       .  S
C1094      C1095   1.538       .  S
C1094      C1100   1.534       .  S
C1094      C1098   1.550       .  S
C1094      C1168   1.536       .  S
C1095      H1102   1.087       .  S
C1095      C1096   1.358       .  D
C1096      C1552   1.473       .  S
C1097      C1101   1.532       .  S
C1097      C1099   1.543       .  S
C1097      H1103   1.111       .  S
C1099      C1141   1.480       .  S
C1100      H1105   1.087       .  S
C1101      C1597   1.482       .  S
O1106     Cr1124   1.983   1_556  S
O1106      C1114   1.259       .  A
O1107     Cr1124   1.952   1_556  S
O1107      C1108   1.259       .  A
C1108      O1109   1.271       .  A
C1108      C1192   1.491       .  S
O1109     Cr1125   2.032       .  S
O1110     Cr1125   2.001       .  S
O1110      C1111   1.263       .  A
C1111      O1112   1.270       .  A
C1111      C1216   1.512       .  S
O1112     Cr1126   2.011   1_556  S
O1113     Cr1126   2.013   1_556  S
O1113      C1114   1.268       .  A
C1114      C1624   1.497       .  S
O1115     Cr1124   1.979       .  S
O1115      C1123   1.262       .  A
O1116     Cr1124   1.989       .  S
O1116      C1117   1.259       .  A
C1117      O1118   1.262       .  A
C1117      C1144   1.482       .  S
O1118     Cr1125   2.003   1_554  S
O1119     Cr1125   2.021   1_554  S
O1119      C1120   1.270       .  A
C1120      O1121   1.264       .  A
C1120      C1132   1.507       .  S
O1121     Cr1126   1.994       .  S
O1122     Cr1126   2.005       .  S
O1122      C1123   1.266       .  A
C1123      C1660   1.467       .  S
Cr1124     O1127   1.768       .  S
Cr1125     O1127   1.781   1_556  S
Cr1126     O1127   1.769       .  S
C1128      C1129   1.606       .  S
C1128      C1156   1.591       .  S
C1128      C1240   1.602       .  S
C1128      C1276   1.575       .  S
C1129      C1130   1.423       .  A
C1129      C1134   1.437       .  A
C1130      C1131   1.406       .  A
C1130      H1135   1.070       .  S
C1131      C1132   1.410       .  A
C1131      C1138   1.445       .  S
C1132      C1133   1.404       .  A
C1133      C1134   1.413       .  A
C1133      H1136   1.083       .  S
C1134      C1137   1.443       .  S
C1137      N1139   1.158       .  T
C1138      N1140   1.157       .  T
C1141      C1142   1.399       .  A
C1141      C1146   1.410       .  A
C1142      C1143   1.397       .  A
C1142      H1147   1.085       .  S
C1143      C1144   1.414       .  A
C1143      C1150   1.445       .  S
C1144      C1145   1.406       .  A
C1145      C1146   1.408       .  A
C1145      H1148   1.084       .  S
C1146      C1149   1.443       .  S
C1149      N1151   1.157       .  T
C1150      N1152   1.157   1_554  T
C1153      C1154   1.391       .  A
C1153      C1158   1.412       .  A
C1154      C1155   1.393       .  A
C1154      H1159   1.087       .  S
C1155      C1156   1.441       .  A
C1155      C1162   1.443       .  S
C1156      C1157   1.423       .  A
C1157      C1158   1.419       .  A
C1157      H1160   1.084       .  S
C1158      C1161   1.442       .  S
C1161      N1163   1.157       .  T
C1162      N1164   1.158       .  T
C1165      C1166   1.401       .  A
C1165      C1170   1.418       .  A
C1166      C1167   1.389       .  A
C1166      H1171   1.085       .  S
C1167      C1168   1.424       .  A
C1167      C1174   1.448       .  S
C1168      C1169   1.411       .  A
C1169      C1170   1.413       .  A
C1169      H1172   1.081       .  S
C1170      C1173   1.443       .  S
C1173      N1175   1.157       .  T
C1174      N1176   1.157       .  T
C1177      C1178   1.408       .  A
C1177      C1182   1.424       .  A
C1178      C1179   1.380       .  A
C1178      H1183   1.086       .  S
C1179      C1180   1.412       .  A
C1179      C1186   1.447       .  S
C1180      C1181   1.407       .  A
C1181      C1182   1.418       .  A
C1181      H1184   1.084       .  S
C1182      C1185   1.439       .  S
C1185      N1187   1.158       .  T
C1186      N1188   1.157       .  T
C1189      C1190   1.412       .  A
C1189      C1194   1.418       .  A
C1190      C1191   1.408       .  A
C1190      H1195   1.084       .  S
C1191      C1192   1.413       .  A
C1191      C1198   1.443       .  S
C1192      C1193   1.402       .  A
C1193      C1194   1.392       .  A
C1193      H1196   1.086       .  S
C1194      C1197   1.441       .  S
C1197      N1199   1.157       .  T
C1198      N1200   1.157       .  T
C1201      C1202   1.416       .  A
C1201      C1206   1.430       .  A
C1202      C1203   1.398       .  A
C1202      H1207   1.079       .  S
C1203      C1204   1.416       .  A
C1203      C1210   1.446       .  S
C1204      C1205   1.400       .  A
C1205      C1206   1.405       .  A
C1205      H1208   1.085       .  S
C1206      C1209   1.442       .  S
C1209      N1211   1.157       .  T
C1210      N1212   1.157       .  T
C1213      C1214   1.427       .  A
C1213      C1218   1.444       .  A
C1214      C1215   1.417       .  A
C1214      H1219   1.078       .  S
C1215      C1216   1.414       .  A
C1215      C1222   1.444       .  S
C1216      C1217   1.397       .  A
C1217      C1218   1.402       .  A
C1217      H1220   1.086       .  S
C1218      C1221   1.443       .  S
C1221      N1223   1.158       .  T
C1222      N1224   1.157       .  T
C1225      C1226   1.416       .  A
C1225      C1230   1.428       .  A
C1226      C1227   1.408       .  A
C1226      H1231   1.077       .  S
C1227      C1228   1.411       .  A
C1227      C1234   1.443       .  S
C1228      C1229   1.408       .  A
C1229      C1230   1.409       .  A
C1229      H1232   1.085       .  S
C1230      C1233   1.443       .  S
C1233      N1235   1.158       .  T
C1234      N1236   1.157       .  T
C1237      C1238   1.408       .  A
C1237      C1242   1.414       .  A
C1238      C1239   1.416       .  A
C1238      H1243   1.085       .  S
C1239      C1240   1.433       .  A
C1239      C1246   1.443       .  S
C1240      C1241   1.415       .  A
C1241      C1242   1.397       .  A
C1241      H1244   1.078       .  S
C1242      C1245   1.446       .  S
C1245      N1247   1.158       .  T
C1246      N1248   1.158       .  T
C1249      C1250   1.401       .  A
C1249      C1254   1.422       .  A
C1250      C1251   1.387       .  A
C1250      H1255   1.078       .  S
C1251      C1252   1.413       .  A
C1251      C1258   1.440       .  S
C1252      C1253   1.403       .  A
C1253      C1254   1.410       .  A
C1253      H1256   1.085       .  S
C1254      C1257   1.442       .  S
C1257      N1259   1.157       .  T
C1258      N1260   1.155   1_556  T
C1261      C1262   1.416       .  A
C1261      C1266   1.419       .  A
C1262      C1263   1.397       .  A
C1262      H1267   1.077       .  S
C1263      C1264   1.405       .  A
C1263      C1270   1.446       .  S
C1264      C1265   1.403       .  A
C1265      C1266   1.410       .  A
C1265      H1268   1.084       .  S
C1266      C1269   1.444       .  S
C1270      N1272   1.157       .  T
C1273      C1274   1.408       .  A
C1273      C1278   1.410       .  A
C1274      C1275   1.416       .  A
C1274      H1279   1.085       .  S
C1275      C1276   1.431       .  A
C1275      C1282   1.441       .  S
C1276      C1277   1.418       .  A
C1277      C1278   1.397       .  A
C1277      H1280   1.083       .  S
C1278      C1281   1.445       .  S
C1281      N1283   1.157       .  T
C1282      N1284   1.158       .  T
C1285      C1286   1.419       .  A
C1285      C1290   1.442       .  A
C1286      C1287   1.418       .  A
C1286      H1291   1.083       .  S
C1287      C1288   1.411       .  A
C1287      C1294   1.443       .  S
C1288      C1289   1.389       .  A
C1289      C1290   1.402       .  A
C1289      H1292   1.086       .  S
C1290      C1293   1.442       .  S
C1293      N1295   1.158       .  T
C1294      N1296   1.157       .  T
C1297      C1298   1.398       .  A
C1297      C1302   1.406       .  A
C1298      C1299   1.391       .  A
C1298      H1303   1.084       .  S
C1299      C1300   1.407       .  A
C1299      C1306   1.443       .  S
C1300      C1301   1.406       .  A
C1301      C1302   1.401       .  A
C1301      H1304   1.085       .  S
C1302      C1305   1.442       .  S
C1305      N1307   1.157       .  T
C1306      N1308   1.156   1_565  T
C1309      C1310   1.410       .  A
C1309      C1314   1.424       .  A
C1310      C1311   1.414       .  A
C1310      H1315   1.084       .  S
C1311      C1312   1.417       .  A
C1311      C1318   1.442       .  S
C1312      C1313   1.399       .  A
C1313      C1314   1.393       .  A
C1313      H1316   1.077       .  S
C1314      C1317   1.447       .  S
C1317      N1319   1.158       .  T
C1318      N1320   1.157       .  T
C1321      C1322   1.402       .  A
C1321      C1326   1.411       .  A
C1322      C1323   1.404       .  A
C1322      H1327   1.084       .  S
C1323      C1324   1.419       .  A
C1323      C1330   1.444       .  S
C1324      C1325   1.406       .  A
C1325      C1326   1.390       .  A
C1325      H1328   1.085       .  S
C1326      C1329   1.446       .  S
C1329      N1331   1.157       .  T
C1330      N1332   1.158       .  T
C1333      C1334   1.396       .  A
C1333      C1338   1.416       .  A
C1334      C1335   1.391       .  A
C1334      H1339   1.086       .  S
C1335      C1336   1.422       .  A
C1335      C1342   1.446       .  S
C1336      C1337   1.402       .  A
C1337      C1338   1.407       .  A
C1337      H1340   1.085       .  S
C1338      C1341   1.440       .  S
C1341      N1343   1.157       .  T
C1342      N1344   1.157       .  T
C1345      C1346   1.409       .  A
C1345      C1350   1.407       .  A
C1346      C1347   1.399       .  A
C1346      H1351   1.084       .  S
C1347      C1348   1.408       .  A
C1347      C1354   1.444       .  S
C1348      C1349   1.408       .  A
C1349      C1350   1.395       .  A
C1349      H1352   1.085       .  S
C1350      C1353   1.445       .  S
C1353      N1355   1.157       .  T
C1354      N1356   1.157       .  T
C1357      C1358   1.394       .  A
C1357      C1362   1.410       .  A
C1358      C1359   1.396       .  A
C1358      H1363   1.085       .  S
C1359      C1360   1.420       .  A
C1359      C1366   1.445       .  S
C1360      C1361   1.408       .  A
C1361      C1362   1.407       .  A
C1361      H1364   1.084       .  S
C1362      C1365   1.443       .  S
C1365      N1367   1.157       .  T
C1366      N1368   1.157       .  T
C1369      C1370   1.414       .  A
C1369      C1374   1.414       .  A
C1370      C1371   1.404       .  A
C1371      C1372   1.408       .  A
C1371      C1378   1.444       .  S
C1372      C1373   1.407       .  A
C1373      C1374   1.397       .  A
C1373      H1376   1.085       .  S
C1374      C1377   1.443       .  S
C1377      N1379   1.157       .  T
C1381      C1382   1.396       .  A
C1381      C1386   1.413       .  A
C1382      C1383   1.393       .  A
C1383      C1384   1.412       .  A
C1383      C1390   1.445       .  S
C1384      C1385   1.401       .  A
C1385      C1386   1.398       .  A
C1385      H1388   1.085       .  S
C1386      C1389   1.445       .  S
C1389      N1391   1.157       .  T
C1393      C1394   1.420       .  A
C1393      C1398   1.431   1_455  A
C1394      C1395   1.398       .  A
C1394      H1399   1.079       .  S
C1395      C1396   1.411       .  A
C1395      C1402   1.446       .  S
C1396      C1397   1.403       .  A
C1397      C1398   1.407   1_455  A
C1397      H1400   1.085       .  S
C1398      C1401   1.445       .  S
C1401      N1403   1.158       .  T
C1402      N1404   1.157       .  T
C1405      C1406   1.404       .  A
C1405      C1410   1.414       .  A
C1406      C1407   1.415       .  A
C1406      H1411   1.085       .  S
C1407      C1408   1.427       .  A
C1407      C1414   1.440       .  S
C1408      C1409   1.405       .  A
C1409      C1410   1.384       .  A
C1409      H1412   1.084       .  S
C1410      C1413   1.445       .  S
C1413      N1415   1.157       .  T
C1414      N1416   1.158       .  T
C1417      C1418   1.413       .  A
C1417      C1422   1.421       .  A
C1418      C1419   1.398       .  A
C1418      H1423   1.079       .  S
C1419      C1420   1.405       .  A
C1419      C1426   1.446       .  S
C1420      C1421   1.400       .  A
C1421      C1422   1.404       .  A
C1421      H1424   1.085       .  S
C1422      C1425   1.445       .  S
C1425      N1427   1.157       .  T
C1426      N1428   1.157       .  T
C1429      C1430   1.398       .  A
C1429      C1434   1.417       .  A
C1430      C1431   1.403       .  A
C1430      H1435   1.085       .  S
C1431      C1432   1.423       .  A
C1431      C1438   1.440       .  S
C1432      C1433   1.406       .  A
C1433      C1434   1.404       .  A
C1433      H1436   1.085       .  S
C1434      C1437   1.444       .  S
C1437      N1439   1.157   1_554  T
C1438      N1440   1.157       .  T
C1441      C1442   1.407       .  A
C1441      C1446   1.411       .  A
C1442      C1443   1.401       .  A
C1442      H1447   1.085       .  S
C1443      C1444   1.405       .  A
C1443      C1450   1.444       .  S
C1444      C1445   1.399       .  A
C1445      C1446   1.394       .  A
C1445      H1448   1.084   1_565  S
C1446      C1449   1.445       .  S
C1449      N1451   1.157       .  T
C1450      N1452   1.157       .  T
C1453      C1454   1.401       .  A
C1453      C1458   1.417       .  A
C1454      C1455   1.397       .  A
C1454      H1459   1.085       .  S
C1455      C1456   1.431       .  A
C1455      C1462   1.445   1_565  S
C1456      C1457   1.419       .  A
C1457      C1458   1.413       .  A
C1457      H1460   1.081   1_455  S
C1458      C1461   1.443       .  S
C1461      N1463   1.157       .  T
C1462      N1464   1.157       .  T
C1465      C1466   1.397       .  A
C1465      C1470   1.406       .  A
C1466      C1467   1.397       .  A
C1466      H1471   1.086       .  S
C1467      C1468   1.420       .  A
C1467      C1474   1.440       .  S
C1468      C1469   1.416       .  A
C1469      C1470   1.408       .  A
C1469      H1472   1.083       .  S
C1470      C1473   1.443       .  S
C1473      N1475   1.157       .  T
C1474      N1476   1.157       .  T
C1477      C1478   1.403       .  A
C1477      C1482   1.413       .  A
C1478      C1479   1.398       .  A
C1478      H1483   1.085       .  S
C1479      C1480   1.413       .  A
C1479      C1486   1.445       .  S
C1480      C1481   1.400       .  A
C1481      C1482   1.397       .  A
C1481      H1484   1.084       .  S
C1482      C1485   1.445       .  S
C1485      N1487   1.157       .  T
C1486      N1488   1.157       .  T
C1489      C1490   1.424   1_455  A
C1489      C1494   1.437       .  A
C1490      C1491   1.404   1_655  A
C1490      H1495   1.083       .  S
C1491      C1492   1.400       .  A
C1491      C1498   1.443   1_455  S
C1492      C1493   1.395       .  A
C1493      C1494   1.397       .  A
C1493      H1496   1.087       .  S
C1497      N1499   1.158       .  T
C1498      N1500   1.157       .  T
C1501      C1502   1.420       .  A
C1501      C1506   1.432       .  A
C1502      C1503   1.413       .  A
C1502      H1507   1.081   1_455  S
C1503      C1504   1.411       .  A
C1503      C1510   1.442       .  S
C1504      C1505   1.397       .  A
C1505      C1506   1.394       .  A
C1505      H1508   1.086       .  S
C1509      N1511   1.157       .  T
C1510      N1512   1.157       .  T
C1513      C1514   1.418       .  A
C1513      C1518   1.438       .  A
C1514      C1515   1.401       .  A
C1515      C1516   1.416       .  A
C1515      C1522   1.445       .  S
C1516      C1517   1.404       .  A
C1517      C1518   1.413       .  A
C1517      H1520   1.085       .  S
C1518      C1521   1.441       .  S
C1521      N1523   1.158       .  T
C1522      N1524   1.157       .  T
C1525      C1526   1.399       .  A
C1525      C1530   1.405       .  A
C1526      C1527   1.410       .  A
C1526      H1531   1.085       .  S
C1527      C1528   1.437       .  A
C1527      C1534   1.442       .  S
C1528      C1529   1.420       .  A
C1529      C1530   1.391       .  A
C1530      C1533   1.446       .  S
C1533      N1535   1.157       .  T
C1534      N1536   1.158       .  T
C1537      C1538   1.401       .  A
C1537      C1542   1.410       .  A
C1538      C1539   1.401       .  A
C1538      H1543   1.085       .  S
C1539      C1540   1.415       .  A
C1539      C1546   1.444       .  S
C1540      C1541   1.405       .  A
C1541      C1542   1.402       .  A
C1541      H1544   1.083       .  S
C1542      C1545   1.444       .  S
C1545      N1547   1.157       .  T
C1546      N1548   1.157       .  T
C1549      C1550   1.408       .  A
C1549      C1554   1.413       .  A
C1550      C1551   1.390       .  A
C1550      H1555   1.085       .  S
C1551      C1552   1.405       .  A
C1551      C1558   1.445       .  S
C1552      C1553   1.405       .  A
C1553      C1554   1.404       .  A
C1554      C1557   1.444       .  S
C1557      N1559   1.158       .  T
C1558      N1560   1.157       .  T
C1561      C1562   1.401       .  A
C1561      C1566   1.410       .  A
C1562      C1563   1.415       .  A
C1562      H1567   1.085       .  S
C1563      C1564   1.435       .  A
C1563      C1570   1.443   1_655  S
C1564      C1565   1.418       .  A
C1565      C1566   1.403       .  A
C1565      H1568   1.078       .  S
C1566      C1569   1.442       .  S
C1569      N1571   1.157       .  T
C1570      N1572   1.157       .  T
C1573      C1574   1.419       .  A
C1573      C1578   1.433       .  A
C1574      C1575   1.401       .  A
C1574      H1579   1.081   1_565  S
C1575      C1576   1.417       .  A
C1575      C1582   1.444       .  S
C1576      C1577   1.405       .  A
C1577      C1578   1.414       .  A
C1577      H1580   1.085       .  S
C1578      C1581   1.440   1_655  S
C1581      N1583   1.157       .  T
C1582      N1584   1.156       .  T
C1585      C1586   1.398       .  A
C1585      C1590   1.407       .  A
C1586      C1587   1.402       .  A
C1586      H1591   1.084       .  S
C1587      C1588   1.416       .  A
C1587      C1594   1.444       .  S
C1588      C1589   1.407       .  A
C1589      C1590   1.399       .  A
C1589      H1592   1.082       .  S
C1590      C1593   1.445   1_565  S
C1594      N1596   1.157       .  T
C1597      C1598   1.404       .  A
C1597      C1602   1.409       .  A
C1598      C1599   1.395       .  A
C1599      C1600   1.410       .  A
C1599      C1606   1.445       .  S
C1600      C1601   1.406       .  A
C1601      C1602   1.402       .  A
C1601      H1604   1.085       .  S
C1602      C1605   1.442       .  S
C1605      N1607   1.157       .  T
C1606      N1608   1.157   1_565  T
C1609      C1610   1.409       .  A
C1609      C1614   1.412       .  A
C1610      C1611   1.402       .  A
C1610      H1615   1.084       .  S
C1611      C1612   1.410       .  A
C1611      C1618   1.443       .  S
C1612      C1613   1.405       .  A
C1613      C1614   1.399       .  A
C1613      H1616   1.085       .  S
C1614      C1617   1.444       .  S
C1617      N1619   1.157       .  T
C1618      N1620   1.157       .  T
C1621      C1622   1.408       .  A
C1621      C1626   1.404       .  A
C1622      C1623   1.408       .  A
C1622      H1627   1.084       .  S
C1623      C1624   1.414       .  A
C1623      C1630   1.443       .  S
C1624      C1625   1.414       .  A
C1625      C1626   1.398       .  A
C1625      H1628   1.083       .  S
C1626      C1629   1.445       .  S
C1629      N1631   1.157       .  T
C1630      N1632   1.157       .  T
C1633      C1634   1.405       .  A
C1633      C1638   1.418       .  A
C1634      C1635   1.407       .  A
C1634      H1639   1.085       .  S
C1635      C1636   1.412       .  A
C1635      C1642   1.443       .  S
C1636      C1637   1.403       .  A
C1637      C1638   1.408       .  A
C1637      H1640   1.084       .  S
C1638      C1641   1.444       .  S
C1641      N1643   1.157       .  T
C1642      N1644   1.157       .  T
C1645      C1646   1.409       .  A
C1645      C1650   1.424       .  A
C1646      C1647   1.403       .  A
C1646      H1651   1.084       .  S
C1647      C1648   1.408       .  A
C1647      C1654   1.440       .  S
C1648      C1649   1.400       .  A
C1649      C1650   1.406       .  A
C1649      H1652   1.085       .  S
C1650      C1653   1.442       .  S
C1653      N1655   1.157       .  T
C1654      N1656   1.156       .  T
C1657      C1658   1.412       .  A
C1657      C1662   1.411       .  A
C1658      C1659   1.399       .  A
C1658      H1663   1.082       .  S
C1659      C1660   1.401       .  A
C1659      C1666   1.443       .  S
C1660      C1661   1.403       .  A
C1661      C1662   1.401       .  A
C1661      H1664   1.083       .  S
C1662      C1665   1.443       .  S
C1665      N1667   1.157       .  T
C1666      N1668   1.157       .  T
C1669      C1670   1.390       .  A
C1669      C1674   1.411       .  A
C1670      C1671   1.391       .  A
C1670      H1675   1.086       .  S
C1671      C1672   1.417       .  A
C1671      C1678   1.441       .  S
C1672      C1673   1.402       .  A
C1673      C1674   1.400       .  A
C1673      H1676   1.085       .  S
C1674      C1677   1.444       .  S
C1677      N1679   1.157       .  T
C1678      N1680   1.156       .  T
C1681      C1682   1.406       .  A
C1681      C1686   1.412       .  A
C1682      C1683   1.408       .  A
C1682      H1687   1.084       .  S
C1683      C1684   1.414       .  A
C1683      C1690   1.442       .  S
C1684      C1685   1.405       .  A
C1685      C1686   1.397       .  A
C1685      H1688   1.085       .  S
C1686      C1689   1.445       .  S
C1689      N1691   1.157       .  T
C1690      N1692   1.157       .  T
C1693      C1694   1.416       .  A
C1693      C1698   1.419       .  A
C1694      C1695   1.399       .  A
C1694      H1699   1.075       .  S
C1695      C1696   1.407       .  A
C1695      C1702   1.447       .  S
C1696      C1697   1.401       .  A
C1697      C1698   1.406       .  A
C1697      H1700   1.077       .  S
C1698      C1701   1.444       .  S
C1701      N1703   1.157       .  T
C1702      N1704   1.157       .  T
