geometry optimzed in LAMMPS
_audit_creation_date              2020-11-30 
_audit_creation_method            'lammps2cif' 
_symmetry_space_group_name_H-M    'P1' 
_symmetry_Int_Tables_number       1 
_symmetry_cell_setting            triclinic 
loop_ 
_symmetry_equiv_pos_as_xyz 
  x,y,z 
_cell_length_a                    32.91356779 
_cell_length_b                    32.924924859968755 
_cell_length_c                    33.57307532080297 
_cell_angle_alpha                 90.19887304159315 
_cell_angle_beta                  90.25120457819348 
_cell_angle_gamma                 89.49303713488534 
loop_ 
_atom_site_label 
_atom_site_type_symbol 
_atom_site_fract_x 
_atom_site_fract_y 
_atom_site_fract_z 
_atom_site_charge 
C1          C  0.34612156  0.32685799  0.15572817    -0.02200
C2          C  0.33675169  0.21317184  0.26446547    -0.02200
C3          C  0.22034305  0.22164297  0.15422102    -0.02200
C4          C  0.22180130  0.34323562  0.26373433    -0.02200
C5          C  0.34327131  0.21688140  0.67499987    -0.02200
C6          C  0.22615909  0.22250431  0.77890730    -0.02200
C7          C  0.22747634  0.33716950  0.65249536    -0.02200
C8          C  0.33215193  0.34791651  0.77576958    -0.02200
C9          C  0.44404590  0.43676476  0.05771360     0.42800
N10         N  0.46006977  0.47946657  0.01222144     0.01700
C11         C  0.63702551  0.47584046  0.89897935    -0.06200
H12         H  0.65948513  0.49353873  0.05026862     0.07200
C13         C  0.58388846  0.63138091  0.04090554    -0.06500
Co14       Co  0.53471956  0.45392076  0.96778377     0.74200
N15         N  0.60678674  0.48455012  0.01267195    -0.25700
Co16       Co  0.60669981  0.53028173  0.96961127     0.74100
C17         C  0.62267548  0.61875829  0.05835327     0.42900
N18         N  0.48484801  0.59921320  0.01553458     0.01300
N19         N  0.60493697  0.57559258  0.01347215     0.01400
N20         N  0.58979257  0.42643226  0.89917969    -0.46600
H21         H  0.50013707  0.39674441  0.04394511     0.07200
N22         N  0.57899255  0.45586494  0.01156499     0.01700
N23         N  0.60297162  0.57593700  0.92637731     0.01400
C24         C  0.61511259  0.61672480  0.87848343     0.43000
N25         N  0.45812343  0.56958337  0.01518274    -0.25200
C26         C  0.48221073  0.42960899  0.89368580    -0.06100
N27         N  0.43210490  0.47129984  0.03927000    -0.46300
N28         N  0.62948181  0.58358314  0.89777962    -0.46500
C29         C  0.44429219  0.44452724  0.87569916     0.42800
N30         N  0.58081708  0.45559746  0.92515467     0.01700
N31         N  0.45542382  0.57228037  0.92871466    -0.25200
N32         N  0.48937881  0.45200497  0.01106808    -0.25700
N33         N  0.48227499  0.60171771  0.92867000     0.01300
H34         H  0.40013680  0.56217885  0.89572874     0.07200
H35         H  0.55928616  0.65635273  0.89292849     0.07200
N36         N  0.60822721  0.48461957  0.92600025    -0.25700
N37         N  0.57541068  0.60297120  0.01355005    -0.25400
N38         N  0.46005736  0.48250647  0.92536198     0.01700
C39         C  0.61716587  0.43914424  0.06045451     0.43100
C40         C  0.43165464  0.57576511  0.04469874    -0.06600
N41         N  0.57297859  0.60289629  0.92742956    -0.25400
H42         H  0.56633582  0.65879805  0.04613092     0.07200
N43         N  0.58442945  0.42796792  0.03918025    -0.46600
H44         H  0.40488324  0.55786082  0.05023492     0.07200
C45         C  0.43877288  0.61875831  0.88350164     0.42900
C46         C  0.48217280  0.42393859  0.03899689    -0.06100
Co47       Co  0.45776072  0.52588350  0.97042716     0.73800
N48         N  0.47714008  0.62670983  0.04342177    -0.46300
C49         C  0.62486074  0.43702031  0.88131819     0.43200
N50         N  0.43223783  0.47700344  0.89739573    -0.46300
Co51       Co  0.52886818  0.60247919  0.97131006     0.73900
C52         C  0.57812053  0.62983668  0.89833641    -0.06600
C53         C  0.63256100  0.47647258  0.04280237    -0.06200
N54         N  0.48947361  0.45504997  0.92410094    -0.25700
N55         N  0.63413384  0.58416581  0.03951131    -0.46500
H56         H  0.66454100  0.49290943  0.89446121     0.07200
C57         C  0.42696858  0.58014540  0.90108854    -0.06600
Cl58       Cl  0.53208476  0.52815477  0.96969319    -0.49600
C59         C  0.44457619  0.61331062  0.06373172     0.42900
H60         H  0.50002879  0.40279405  0.88673241     0.07200
N61         N  0.47326047  0.63041680  0.90232842    -0.46300
C62         C  0.32231863  0.71039521  0.14608528    -0.02200
C63         C  0.20916400  0.82596593  0.14343640    -0.02200
C64         C  0.20679895  0.70850104  0.26135400    -0.02200
C65         C  0.33575903  0.83123436  0.26396906    -0.02200
C66         C  0.42666664  0.11214931  0.37862008     0.42800
N67         N  0.44276531  0.07031995  0.42455356     0.01700
C68         C  0.61320228  0.06865781  0.54448626    -0.06200
H69         H  0.64494940  0.05578545  0.39277711     0.07200
C70         C  0.56968801  0.92165999  0.39190223    -0.06500
Co71       Co  0.51685230  0.09603115  0.46894229     0.74200
N72         N  0.59030770  0.06627655  0.42632986    -0.25700
Co73       Co  0.58989798  0.01965899  0.46756906     0.74100
C74         C  0.60794126  0.93592924  0.37510270     0.42900
N75         N  0.46927414  0.95139043  0.42049254     0.01300
N76         N  0.58922867  0.97627907  0.42204068     0.01400
N77         N  0.56536039  0.11794929  0.54310208    -0.46600
H78         H  0.48151001  0.15281978  0.39223690     0.07200
N79         N  0.56288312  0.09568179  0.42636672     0.01700
N80         N  0.58912268  0.97255849  0.50836512     0.01400
C81         C  0.61025042  0.92698193  0.54870038     0.43000
N82         N  0.44129288  0.98027274  0.42213433    -0.25200
C83         C  0.46489377  0.12280834  0.54032542    -0.06100
N84         N  0.41472877  0.07807779  0.39715803    -0.46300
N85         N  0.61901641  0.96354069  0.53336720    -0.46500
C86         C  0.42738073  0.11001009  0.55911293     0.42800
N87         N  0.56057725  0.09196298  0.51340435     0.01700
N88         N  0.44195543  0.97767803  0.50835685    -0.25200
N89         N  0.47184379  0.09770245  0.42538646    -0.25700
N90         N  0.46938265  0.94812852  0.50730091     0.01300
H91         H  0.38803995  0.98765137  0.54326666     0.07200
H92         H  0.55623549  0.88529699  0.53437583     0.07200
N93         N  0.58837735  0.06291824  0.51321900    -0.25700
N94         N  0.56057426  0.94846202  0.42073989    -0.25400
N95         N  0.44224711  0.06869623  0.51151759     0.01700
C96         C  0.60513770  0.11230439  0.38084501     0.43100
C97         C  0.41380733  0.97387725  0.39332082    -0.06600
N98         N  0.56111232  0.94413839  0.50644599    -0.25400
H99         H  0.55288773  0.89438622  0.38516076     0.07200
N100        N  0.57088965  0.12432663  0.39988559    -0.46600
H101        H  0.38630583  0.99152722  0.38911607     0.07200
C102        C  0.42868397  0.93147265  0.55410752     0.42900
C103        C  0.46412466  0.12564003  0.39742991    -0.06100
Co104      Co  0.44119156  0.02416302  0.46675772     0.73800
N105        N  0.46209460  0.92469823  0.39181374    -0.46300
C106        C  0.59739717  0.10485285  0.56483292     0.43200
N107        N  0.41463749  0.07636130  0.53943006    -0.46300
Co108      Co  0.51480797  0.94721980  0.46373064     0.73900
C109        C  0.57187488  0.91383604  0.53113517    -0.06600
C110        C  0.61797482  0.07386513  0.39840410    -0.06200
N111        N  0.47151375  0.09574198  0.51141066    -0.25700
N112        N  0.61826168  0.96975060  0.39547349    -0.46500
H113        H  0.64005343  0.05076894  0.55125769     0.07200
C114        C  0.41506276  0.96987020  0.53701456    -0.06600
Cl115      Cl  0.51568154  0.02169000  0.46672890    -0.49600
C116        C  0.42787026  0.93716032  0.37286924     0.42900
H117        H  0.48315679  0.14936558  0.54598501     0.07200
N118        N  0.46207152  0.91937951  0.53377056    -0.46300
C119        C  0.70893303  0.34127544  0.75558977    -0.02200
C120        C  0.83241114  0.32400845  0.64299349    -0.02200
C121        C  0.70088441  0.22212923  0.64907106    -0.02200
C122        C  0.83093077  0.20718179  0.75046246    -0.02200
C123        C  0.33546011  0.71625768  0.77466966    -0.02200
C124        C  0.33285605  0.82543913  0.65833346    -0.02200
C125        C  0.20754415  0.72127625  0.66061396    -0.02200
C126        C  0.22481595  0.83601175  0.77927322    -0.02200
C127        C  0.71790859  0.84451060  0.26777237    -0.02200
C128        C  0.84413963  0.74025938  0.28129793    -0.02200
C129        C  0.71675568  0.72572728  0.16309850    -0.02200
C130        C  0.84658801  0.84431772  0.16200960    -0.02200
C131        C  0.70645985  0.72274051  0.77204097    -0.02200
C132        C  0.83782062  0.71120766  0.66961285    -0.02200
C133        C  0.70871057  0.84192365  0.66899408    -0.02200
C134        C  0.83374650  0.83141862  0.77468379    -0.02200
C135        C  0.12103363  0.12537758  0.04128280     0.42800
N136        N  0.07575134  0.08090749  0.02595722     0.01700
C137        C  0.06998799  0.95947601  0.85607230    -0.06200
H138        H  0.05114469  0.10996823  0.82980534     0.07200
C139        C  0.91930841  0.10901678  0.91118208    -0.06500
Co140      Co  0.09832023  0.03296049  0.95349030     0.74200
N141        N  0.06368913  0.07607754  0.88274992    -0.25700
Co142      Co  0.01792860  0.03321089  0.88590072     0.74100
C143        C  0.93129227  0.12641097  0.87294295     0.42900
N144        N  0.95401311  0.08142543  0.00769810     0.01300
N145        N  0.97324775  0.07858420  0.88919170     0.01400
N146        N  0.12147115  0.95996755  0.90079099    -0.46600
H147        H  0.15920632  0.10740703  0.98600029     0.07200
N148        N  0.09392529  0.07604543  0.90856330     0.01700
N149        N  0.97204626  0.99035981  0.88999076     0.01400
C150        C  0.92797780  0.94554853  0.87376238     0.43000
N151        N  0.98509496  0.08219144  0.03263093    -0.25200
C152        C  0.13048815  0.96326283  0.00858592    -0.06100
N153        N  0.08596858  0.10812557  0.05318075    -0.46300
N154        N  0.96219209  0.96400415  0.86177589    -0.46500
C155        C  0.12002123  0.94882758  0.04825953     0.42800
N156        N  0.09337607  0.98754933  0.90980044     0.01700
N157        N  0.98487563  0.99408429  0.03506516    -0.25200
N158        N  0.10232441  0.07841499  0.99678790    -0.25700
N159        N  0.95422797  0.99262342  0.00960096     0.01300
H160        H  0.99894171  0.96207682  0.08882175     0.07200
H161        H  0.89029886  0.95837140  0.93024476     0.07200
N162        N  0.06308688  0.98812532  0.88386007    -0.25700
N163        N  0.94693589  0.07965554  0.91874777    -0.25400
N164        N  0.07570734  0.99296182  0.02981421     0.01700
C165        C  0.10897240  0.12340109  0.86723593     0.43100
C166        C  0.97869308  0.11159282  0.05967071    -0.06600
N167        N  0.94591743  0.99106644  0.91975534    -0.25400
H168        H  0.89258680  0.11547110  0.92881659     0.07200
N169        N  0.12150890  0.10357177  0.90031744    -0.46600
H170        H  0.99753403  0.11745288  0.08549721     0.07200
C171        C  0.94172515  0.94549015  0.05217264     0.42900
C172        C  0.13203176  0.10524168  0.00367565    -0.06100
Co173      Co  0.03027293  0.03764897  0.03135522     0.73800
N174        N  0.92554278  0.10845581  0.01710402    -0.46300
C175        C  0.10904657  0.94087116  0.86716996     0.43200
N176        N  0.08585451  0.96849022  0.05958509    -0.46300
Co177      Co  0.94944761  0.03606022  0.96413283     0.73900
C178        C  0.91710748  0.96323331  0.91242709    -0.06600
C179        C  0.07036943  0.10478305  0.85537421    -0.06200
N180        N  0.10150270  0.99082241  0.99981050    -0.25700
N181        N  0.96439706  0.10519720  0.86092256    -0.46500
H182        H  0.05080577  0.95396736  0.83046586     0.07200
C183        C  0.97955456  0.96587595  0.06305868    -0.06600
Cl184      Cl  0.02398829  0.03476971  0.95874035    -0.49600
C185        C  0.93945883  0.12941999  0.04897418     0.42900
H186        H  0.15714497  0.95667727  0.99090179     0.07200
N187        N  0.92744004  0.96434388  0.01903489    -0.46300
C188        C  0.70884796  0.20726029  0.27283854    -0.02200
C189        C  0.83265261  0.21787034  0.16091413    -0.02200
C190        C  0.70343159  0.31946037  0.15749494    -0.02200
C191        C  0.82768331  0.31966985  0.28663105    -0.02200
C192        C  0.11581866  0.44191759  0.36822531     0.42800
N193        N  0.06926434  0.45393256  0.41171661     0.01700
C194        C  0.94880735  0.62854562  0.42012749    -0.06200
H195        H  0.09857050  0.65495553  0.43270751     0.07200
C196        C  0.09729085  0.57208064  0.56642864    -0.06500
Co197      Co  0.01969303  0.52798231  0.39081443     0.74200
N198        N  0.06405967  0.60030517  0.42276449    -0.25700
Co199      Co  0.02215606  0.59743809  0.46940848     0.74100
C200        C  0.11334136  0.61200808  0.55675517     0.42900
N201        N  0.07405684  0.47419414  0.53081020     0.01300
N202        N  0.06839886  0.59497322  0.51285918     0.01400
N203        N  0.94821781  0.58424642  0.36869553    -0.46600
H204        H  0.09703933  0.49836180  0.33178667     0.07200
N205        N  0.06295132  0.57406849  0.39287232     0.01700
N206        N  0.97962041  0.59298804  0.51538470     0.01400
C207        C  0.93415339  0.60758664  0.55931888     0.43000
N208        N  0.07404479  0.44804913  0.50090528    -0.25200
C209        C  0.94606275  0.47227573  0.36553418    -0.06100
N210        N  0.09869077  0.42789146  0.40205050    -0.46300
N211        N  0.95183350  0.62064832  0.52544432    -0.46500
C212        C  0.93114536  0.43247350  0.37828414     0.42800
N213        N  0.97468369  0.57293794  0.39655797     0.01700
N214        N  0.98570219  0.44521329  0.50449105    -0.25200
N215        N  0.06548876  0.48387310  0.38591149    -0.25700
N216        N  0.98557818  0.47164465  0.53412704     0.01300
H217        H  0.95173048  0.39062511  0.49325645     0.07200
H218        H  0.95075503  0.55053829  0.59592360     0.07200
N219        N  0.97620467  0.59901990  0.42647472    -0.25700
N220        N  0.06984002  0.56433854  0.53802400    -0.25400
N221        N  0.98054552  0.45075625  0.41635290     0.01700
C222        C  0.10915469  0.61627210  0.37639352     0.43100
C223        C  0.10472070  0.42141357  0.50632509    -0.06600
N224        N  0.98197595  0.56267060  0.54097741    -0.25400
H225        H  0.10187897  0.55376310  0.59274147     0.07200
N226        N  0.08898152  0.58292630  0.36426036    -0.46600
H227        H  0.11084838  0.39502735  0.48796694     0.07200
C228        C  0.94017489  0.42857090  0.54996228     0.42900
C229        C  0.09350064  0.47892814  0.35741501    -0.06100
Co230      Co  0.02755090  0.44878915  0.45827155     0.73800
N231        N  0.10309251  0.46631142  0.55724237    -0.46300
C232        C  0.93028736  0.61906835  0.38151856     0.43200
N233        N  0.95415696  0.42136827  0.40983247    -0.46300
Co234      Co  0.02780755  0.51803009  0.53649331     0.73900
C235        C  0.95448666  0.56919814  0.56976473    -0.06600
C236        C  0.09218978  0.62838771  0.41479449    -0.06200
N237        N  0.97687265  0.48088467  0.39068253    -0.25700
N238        N  0.09338121  0.62459510  0.52347715    -0.46500
H239        H  0.94533189  0.65536212  0.43852254     0.07200
C240        C  0.95762696  0.41699678  0.51161978    -0.06600
Cl241      Cl  0.02426747  0.52310140  0.46372921    -0.49600
C242        C  0.12456191  0.43412497  0.54331737     0.42900
H243        H  0.93711968  0.49019701  0.33996904     0.07200
N244        N  0.95906039  0.46261999  0.56219374    -0.46300
C245        C  0.90275185  0.40476639  0.35682730     0.00200
C246        C  0.86949379  0.42083376  0.33575370    -0.11700
C247        C  0.84206937  0.39566828  0.31485254     0.02400
C248        C  0.84963262  0.35282778  0.31196252     0.00100
C249        C  0.88113480  0.33742666  0.33636852    -0.11600
C250        C  0.90765159  0.36222475  0.35778450     0.02300
H251        H  0.86394199  0.45335646  0.33697965     0.15300
H252        H  0.88566696  0.30508647  0.33851000     0.15300
C253        C  0.94072272  0.34258788  0.37885953     0.36900
C254        C  0.80517799  0.41563853  0.30227333     0.36800
N255        N  0.96716041  0.32644694  0.39545008    -0.43400
N256        N  0.77635888  0.43376938  0.29298736    -0.43400
C257        C  0.73397872  0.33251588  0.19102198     0.00200
C258        C  0.74808576  0.29742645  0.20863431    -0.11700
C259        C  0.77738769  0.29698975  0.23551247     0.02400
C260        C  0.79554963  0.33105196  0.25237544     0.00100
C261        C  0.78766745  0.36727985  0.23058233    -0.11600
C262        C  0.75658337  0.36870067  0.20028888     0.02300
H263        H  0.73779736  0.26782213  0.19836718     0.15300
H264        H  0.80792658  0.39266529  0.23329188     0.15300
C265        C  0.75294202  0.40566029  0.17768249     0.36900
C266        C  0.79127910  0.25872761  0.24365368     0.36800
N267        N  0.75053037  0.43586032  0.16023466    -0.43400
N268        N  0.80698025  0.23112918  0.25655959    -0.43400
C269        C  0.80472680  0.24694732  0.13249038     0.00200
C270        C  0.80826158  0.28946803  0.12722074    -0.11700
C271        C  0.77331703  0.31392029  0.12098821     0.02400
C272        C  0.73455614  0.29672071  0.12769689     0.00100
C273        C  0.73321198  0.25580595  0.11476688    -0.11600
C274        C  0.77020110  0.23350762  0.11074393     0.02300
H275        H  0.83685291  0.30266933  0.12057992     0.15300
H276        H  0.70563521  0.24317283  0.10320915     0.15300
C277        C  0.77327145  0.20074460  0.08214211     0.36900
C278        C  0.77700558  0.35402424  0.10450869     0.36800
N279        N  0.77556515  0.17476977  0.05893384    -0.43400
N280        N  0.77987438  0.38559592  0.08979540    -0.43400
C281        C  0.86250971  0.24546983  0.19047106     0.00200
C282        C  0.88071546  0.23151876  0.22662101    -0.11700
C283        C  0.88052263  0.25706319  0.26191244     0.02400
C284        C  0.86319305  0.29742197  0.25971808     0.00100
C285        C  0.86972421  0.31357839  0.22127813    -0.11600
C286        C  0.87084587  0.28811716  0.18712035     0.02300
H287        H  0.89172497  0.20091634  0.22883562     0.15300
H288        H  0.87028568  0.34624215  0.21741219     0.15300
C289        C  0.89857372  0.30251463  0.15720221     0.36900
C290        C  0.89607995  0.24004352  0.29832510     0.36800
N291        N  0.92094834  0.31468970  0.13365611    -0.43400
N292        N  0.90934266  0.22580034  0.32710361    -0.43400
C293        C  0.67751112  0.23480214  0.24457034     0.00200
C294        C  0.66290805  0.22317598  0.20620879    -0.11700
C295        C  0.66188056  0.25129240  0.17374993     0.02400
C296        C  0.67039098  0.29273396  0.18104187     0.00100
C297        C  0.66068897  0.30367033  0.22096847    -0.11600
C298        C  0.66198712  0.27467512  0.25210980     0.02300
H299        H  0.65002517  0.19352138  0.20230717     0.15300
H300        H  0.65429928  0.33464093  0.22880190     0.15300
C301        C  0.63126218  0.28095420  0.28215385     0.36900
C302        C  0.64018269  0.24043360  0.13799358     0.36800
N303        N  0.60603283  0.28637633  0.30554161    -0.43400
N304        N  0.62243740  0.23202621  0.10933642    -0.43400
C305        C  0.73561026  0.23597487  0.30352108     0.00200
C306        C  0.72679909  0.27752981  0.31159810    -0.11700
C307        C  0.75741967  0.30589941  0.32132885     0.02400
C308        C  0.79912909  0.29458336  0.31809723     0.00100
C309        C  0.80410775  0.25348489  0.33119508    -0.11600
C310        C  0.77137716  0.22440990  0.32596137     0.02300
H311        H  0.69646677  0.28829590  0.31429998     0.15300
H312        H  0.83302580  0.24317788  0.34245576     0.15300
C313        C  0.77560965  0.18471178  0.34332507     0.36900
C314        C  0.74492691  0.34627917  0.33260128     0.36800
N315        N  0.77924185  0.15312985  0.35801922    -0.43400
N316        N  0.73271768  0.37758984  0.34301782    -0.43400
C317        C  0.80151797  0.18915269  0.18648137     0.00200
C318        C  0.76059441  0.18326934  0.17481821    -0.11700
C319        C  0.73008902  0.17498321  0.20235123     0.02400
C320        C  0.73852873  0.18085338  0.24298773     0.00100
C321        C  0.77691202  0.16095030  0.25068385    -0.11600
C322        C  0.80887166  0.16346359  0.22086690     0.02300
H323        H  0.75480099  0.17196814  0.14545740     0.15300
H324        H  0.78408710  0.14805881  0.27919618     0.15300
C325        C  0.84665536  0.14228803  0.22780471     0.36900
C326        C  0.70207064  0.14330533  0.19070573     0.36800
N327        N  0.87659553  0.12448367  0.23348719    -0.43400
N328        N  0.67990889  0.11794717  0.18108456    -0.43400
C329        C  0.91257536  0.15146445  0.07681027     0.00200
C330        C  0.88288649  0.12986414  0.09697690    -0.11700
C331        C  0.85633632  0.14895498  0.12391858     0.02400
C332        C  0.85965309  0.19177731  0.13207350     0.00100
C333        C  0.88860453  0.21289504  0.10923705    -0.11600
C334        C  0.91551798  0.19333529  0.08308615     0.02300
H335        H  0.88015361  0.09752597  0.09115574     0.15300
H336        H  0.88960572  0.24531239  0.11064100     0.15300
C337        C  0.94548284  0.21697874  0.06238151     0.36900
C338        C  0.82498672  0.12269848  0.13862360     0.36800
N339        N  0.96970759  0.23573822  0.04587741    -0.43400
N340        N  0.80052243  0.10013532  0.14919806    -0.43400
C341        C  0.90419999  0.91682671  0.84889890     0.00200
C342        C  0.88743813  0.88262686  0.86673072    -0.11700
C343        C  0.86672417  0.85320722  0.84425220     0.02400
C344        C  0.85948095  0.85917459  0.80252407     0.00100
C345        C  0.87823156  0.89313643  0.78494769    -0.11600
C346        C  0.89976824  0.92177004  0.80743000     0.02300
H347        H  0.89225601  0.87788842  0.89838897     0.15300
H348        H  0.87560789  0.89796729  0.75316383     0.15300
C349        C  0.91561083  0.95683638  0.78717865     0.36900
C350        C  0.85723901  0.81646727  0.86544926     0.36800
N351        N  0.92812647  0.98494621  0.77083821    -0.43400
N352        N  0.85045636  0.78750158  0.88361994    -0.43400
C353        C  0.73857353  0.87381911  0.69196853     0.00200
C354        C  0.73628182  0.88812260  0.73225420    -0.11700
C355        C  0.77125649  0.88481461  0.75823977     0.02400
C356        C  0.80584545  0.86128637  0.74573212     0.00100
C357        C  0.81176455  0.86816866  0.70414156    -0.11600
C358        C  0.77894788  0.87745469  0.67806544     0.02300
H359        H  0.70803571  0.89730509  0.74547307     0.15300
H360        H  0.84115948  0.87225031  0.69185630     0.15300
C361        C  0.78683690  0.88735014  0.63701988     0.36900
C362        C  0.77360873  0.91145645  0.79213572     0.36800
N363        N  0.79322337  0.89560239  0.60417393    -0.43400
N364        N  0.77576199  0.93474633  0.81794260    -0.43400
C365        C  0.80807448  0.74735520  0.65563455     0.00200
C366        C  0.79039979  0.76264308  0.68972820    -0.11700
C367        C  0.75728523  0.78618254  0.68970237     0.02400
C368        C  0.74086833  0.80633888  0.65695908     0.00100
C369        C  0.76297124  0.79819759  0.62104949    -0.11600
C370        C  0.79591339  0.76863050  0.61977737     0.02300
H371        H  0.80105948  0.75251479  0.71882742     0.15300
H372        H  0.75824813  0.81691901  0.59511623     0.15300
C373        C  0.81964731  0.76811936  0.58389530     0.36900
C374        C  0.74667277  0.79709785  0.72716672     0.36800
N375        N  0.83817166  0.76849182  0.55466466    -0.43400
N376        N  0.73568561  0.81320191  0.75472677    -0.43400
C377        C  0.87028366  0.73648814  0.69572212     0.00200
C378        C  0.87766339  0.73144358  0.73713098    -0.11700
C379        C  0.88222750  0.76610456  0.76210275     0.02400
C380        C  0.86591720  0.80371043  0.74918217     0.00100
C381        C  0.87825714  0.80960085  0.70931766    -0.11600
C382        C  0.88200710  0.77602609  0.68271567     0.02300
H383        H  0.88215707  0.70205589  0.75006659     0.15300
H384        H  0.89095735  0.83830584  0.70072087     0.15300
C385        C  0.89635891  0.78272931  0.64285606     0.36900
C386        C  0.90710652  0.76371369  0.79757309     0.36800
N387        N  0.90884689  0.78860701  0.61125469    -0.43400
N388        N  0.92748442  0.76156420  0.82567313    -0.43400
C389        C  0.86160472  0.68335660  0.63975842     0.00200
C390        C  0.85299776  0.68195317  0.59857499    -0.11700
C391        C  0.87680113  0.65900820  0.57160923     0.02400
C392        C  0.90803099  0.63324654  0.58583774     0.00100
C393        C  0.91382503  0.63068760  0.62694381    -0.11600
C394        C  0.89105783  0.65440191  0.65363752     0.02300
H395        H  0.82589395  0.69590818  0.58728597     0.15300
H396        H  0.93653862  0.60976613  0.63861405     0.15300
C397        C  0.89740706  0.64459050  0.69499347     0.36900
C398        C  0.86723719  0.66096741  0.52965785     0.36800
N399        N  0.90409276  0.63357456  0.72708615    -0.43400
N400        N  0.85970418  0.66272455  0.49600032    -0.43400
C401        C  0.67404634  0.75248643  0.74870084     0.00200
C402        C  0.66144861  0.74570986  0.70913460    -0.11700
C403        C  0.66282918  0.77747892  0.68059472     0.02400
C404        C  0.67349887  0.81762541  0.69290736     0.00100
C405        C  0.66046237  0.82508768  0.73284850    -0.11600
C406        C  0.65962453  0.79184033  0.76090236     0.02300
H407        H  0.65048891  0.71607520  0.70066418     0.15300
H408        H  0.65583192  0.85560880  0.74363793     0.15300
C409        C  0.64149321  0.79808828  0.79933715     0.36900
C410        C  0.65489552  0.76772980  0.63945034     0.36800
N411        N  0.62626415  0.80321052  0.82997572    -0.43400
N412        N  0.64775608  0.75927665  0.60668322    -0.43400
C413        C  0.73556093  0.69559162  0.74159282     0.00200
C414        C  0.73265691  0.69145558  0.69909078    -0.11700
C415        C  0.76624465  0.67864236  0.67562313     0.02400
C416        C  0.80606037  0.68178073  0.69197893     0.00100
C417        C  0.80634874  0.67164671  0.73300462    -0.11600
C418        C  0.76932193  0.67165199  0.75502700     0.02300
H419        H  0.70540013  0.69504320  0.68244383     0.15300
H420        H  0.83327606  0.65927831  0.74669606     0.15300
C421        C  0.76410870  0.64179125  0.78586145     0.36900
C422        C  0.75999047  0.66893865  0.63412626     0.36800
N423        N  0.75955918  0.61715363  0.80990639    -0.43400
N424        N  0.75434923  0.66005999  0.60119551    -0.43400
C425        C  0.73807514  0.74705943  0.80171091     0.00200
C426        C  0.73440994  0.78457706  0.82382057    -0.11700
C427        C  0.76876736  0.81199219  0.82412961     0.02400
C428        C  0.80395153  0.80138494  0.80025345     0.00100
C429        C  0.80965003  0.75858701  0.80255361    -0.11600
C430        C  0.77718404  0.73243047  0.80945169     0.02300
H431        H  0.70634627  0.79518781  0.83633665     0.15300
H432        H  0.83780484  0.74710769  0.81390155     0.15300
C433        C  0.78211523  0.70497956  0.84273382     0.36900
C434        C  0.76795325  0.84573900  0.85135038     0.36800
N435        N  0.78609764  0.68386217  0.86998705    -0.43400
N436        N  0.76710133  0.87113522  0.87525977    -0.43400
C437        C  0.87137439  0.86443933  0.12741970     0.00200
C438        C  0.91441808  0.86695682  0.13069542    -0.11700
C439        C  0.93792206  0.89058354  0.10518245     0.02400
C440        C  0.91904644  0.91481856  0.07587687     0.00100
C441        C  0.87730381  0.90981364  0.06941278    -0.11600
C442        C  0.85383115  0.88411066  0.09345695     0.02300
H443        H  0.93117232  0.85083729  0.15346467     0.15300
H444        H  0.86272746  0.92600830  0.04507435     0.15300
C445        C  0.81333004  0.87667688  0.07907995     0.36900
C446        C  0.98159581  0.88762438  0.10914598     0.36800
N447        N  0.78177019  0.87077905  0.06491936    -0.43400
N448        N  0.01652368  0.88457066  0.11238328    -0.43400
C449        C  0.74446259  0.76002623  0.14510503     0.00200
C450        C  0.75563369  0.78364768  0.17650465    -0.11700
C451        C  0.79427394  0.79416278  0.18078139     0.02400
C452        C  0.81719563  0.80814196  0.14948960     0.00100
C453        C  0.80595123  0.79008175  0.11239076    -0.11600
C454        C  0.77139859  0.76269424  0.11087441     0.02300
H455        H  0.74018749  0.78165858  0.20372384     0.15300
H456        H  0.82416231  0.79517955  0.08619435     0.15300
C457        C  0.76578159  0.73877620  0.07532864     0.36900
C458        C  0.80345427  0.80237216  0.21922210     0.36800
N459        N  0.76167859  0.71998112  0.04641169    -0.43400
N460        N  0.81036771  0.81611223  0.24893718    -0.43400
C461        C  0.74875141  0.70184465  0.19200956     0.00200
C462        C  0.74332614  0.69338107  0.23287486    -0.11700
C463        C  0.77602239  0.69651489  0.26061857     0.02400
C464        C  0.81304239  0.71653831  0.24982185     0.00100
C465        C  0.82118040  0.70696876  0.20896448    -0.11600
C466        C  0.79008459  0.69734416  0.18118625     0.02300
H467        H  0.71591439  0.67852467  0.24215064     0.15300
H468        H  0.85085237  0.70226283  0.19792814     0.15300
C469        C  0.80111639  0.68045600  0.14303916     0.36900
C470        C  0.77432801  0.66978708  0.29456428     0.36800
N471        N  0.81048252  0.66585263  0.11301729    -0.43400
N472        N  0.77286295  0.64718907  0.32085170    -0.43400
C473        C  0.87766531  0.76711668  0.25740481     0.00200
C474        C  0.88749853  0.80869532  0.26443053    -0.11700
C475        C  0.88881657  0.83661250  0.23185877     0.02400
C476        C  0.87827755  0.82269015  0.19295549     0.00100
C477        C  0.89040586  0.78141069  0.18713309    -0.11600
C478        C  0.89444183  0.75497093  0.22047322     0.02300
H479        H  0.89264719  0.82024451  0.29384988     0.15300
H480        H  0.89378689  0.76934705  0.15726578     0.15300
C481        C  0.91848277  0.71814228  0.21757413     0.36900
C482        C  0.91137083  0.87342814  0.23708180     0.36800
N483        N  0.93760227  0.68857621  0.21517993    -0.43400
N484        N  0.93116081  0.90195031  0.24173028    -0.43400
C485        C  0.86864610  0.70845263  0.30629565     0.00200
C486        C  0.86791043  0.66638714  0.29673207    -0.11700
C487        C  0.88661067  0.63683757  0.32095888     0.02400
C488        C  0.90854684  0.64858771  0.35514126     0.00100
C489        C  0.91204480  0.69013571  0.36330011    -0.11600
C490        C  0.89336855  0.71972481  0.33943313     0.02300
H491        H  0.85269414  0.65562657  0.27021434     0.15300
H492        H  0.93056604  0.70008259  0.38817485     0.15300
C493        C  0.90251213  0.76106074  0.35013008     0.36900
C494        C  0.88188994  0.59458578  0.31037388     0.36800
N495        N  0.91236818  0.79292565  0.36092965    -0.43400
N496        N  0.87792161  0.56075075  0.30187474    -0.43400
C497        C  0.68749616  0.81334396  0.24377423     0.00200
C498        C  0.67092692  0.82081110  0.20561680    -0.11700
C499        C  0.66599479  0.78866232  0.17717204     0.02400
C500        C  0.67971459  0.74841925  0.18693288     0.00100
C501        C  0.67264699  0.74148883  0.22772755    -0.11600
C502        C  0.67403496  0.77396734  0.25592415     0.02300
H503        H  0.65409918  0.84867345  0.20175769     0.15300
H504        H  0.66088944  0.71228046  0.23642841     0.15300
C505        C  0.64617721  0.77023075  0.28879721     0.36900
C506        C  0.63244892  0.79317790  0.14988489     0.36800
N507        N  0.62325291  0.76666724  0.31457356    -0.43400
N508        N  0.60460416  0.79673149  0.12896023    -0.43400
C509        C  0.81446155  0.87754537  0.18133193     0.00200
C510        C  0.77333876  0.87780630  0.16780259    -0.11700
C511        C  0.73979028  0.87594236  0.19423321     0.02400
C512        C  0.74604866  0.87107966  0.23634053     0.00100
C513        C  0.78251877  0.89205493  0.24716666    -0.11600
C514        C  0.81628816  0.89557526  0.22002700     0.02300
H515        H  0.76637978  0.87366337  0.13690026     0.15300
H516        H  0.78467015  0.90687709  0.27554953     0.15300
C517        C  0.84264257  0.92970197  0.22583076     0.36900
C518        C  0.70394653  0.89579669  0.17855370     0.36800
N519        N  0.86246434  0.95826087  0.23013366    -0.43400
N520        N  0.67610085  0.91266621  0.16511473    -0.43400
C521        C  0.74788158  0.81881119  0.29786225     0.00200
C522        C  0.74347477  0.77695251  0.30761353    -0.11700
C523        C  0.77674548  0.75364281  0.32154564     0.02400
C524        C  0.81579248  0.76671390  0.31243557     0.00100
C525        C  0.81779839  0.80878594  0.32447156    -0.11600
C526        C  0.78218519  0.83461679  0.31958096     0.02300
H527        H  0.71454161  0.76536688  0.31559915     0.15300
H528        H  0.84514181  0.82198258  0.33605619     0.15300
C529        C  0.78007924  0.87323592  0.33976533     0.36900
C530        C  0.77159555  0.73130896  0.35810434     0.36800
N531        N  0.77794484  0.90405533  0.35634483    -0.43400
N532        N  0.76773399  0.71406139  0.38780912    -0.43400
C533        C  0.19262131  0.85964001  0.80451957     0.00200
C534        C  0.16351292  0.88304281  0.78345215    -0.11700
C535        C  0.13528636  0.90857896  0.80251479     0.02400
C536        C  0.13517353  0.91168509  0.84446085     0.00100
C537        C  0.16214727  0.88696147  0.86598726    -0.11600
C538        C  0.18962001  0.86036060  0.84708371     0.02300
H539        H  0.16232256  0.88125570  0.75131463     0.15300
H540        H  0.16125403  0.88792126  0.89831677     0.15300
C541        C  0.21156783  0.83351629  0.87351026     0.36900
C542        C  0.10810288  0.93201193  0.77759424     0.36800
N543        N  0.22793476  0.81219309  0.89588804    -0.43400
N544        N  0.08659614  0.95028058  0.75683188    -0.43400
C545        C  0.18147848  0.75402226  0.68507474     0.00200
C546        C  0.19389670  0.79340622  0.68178065    -0.11700
C547        C  0.21975503  0.80257329  0.71226216     0.02400
C548        C  0.20184371  0.80745964  0.74887201     0.00100
C549        C  0.16919647  0.77884126  0.75471753    -0.11600
C550        C  0.16016121  0.74990642  0.72254811     0.02300
H551        H  0.16923805  0.81522839  0.67784012     0.15300
H552        H  0.15332433  0.77750462  0.78283204     0.15300
C553        C  0.13027657  0.71871898  0.72781110     0.36900
C554        C  0.25882015  0.78421192  0.71355962     0.36800
N555        N  0.10643565  0.69349348  0.73200894    -0.43400
N556        N  0.29044975  0.76969533  0.71579088    -0.43400
C557        C  0.17843236  0.69277190  0.63728588     0.00200
C558        C  0.18169811  0.65016496  0.64099560    -0.11700
C559        C  0.16315814  0.62368179  0.61380280     0.02400
C560        C  0.13660010  0.63898567  0.58420171     0.00100
C561        C  0.12975657  0.68098816  0.58272082    -0.11600
C562        C  0.14978613  0.70770394  0.60874660     0.02300
H563        H  0.19974413  0.63669176  0.66444772     0.15300
H564        H  0.10803751  0.69316272  0.56137628     0.15300
C565        C  0.13777604  0.74985887  0.60641510     0.36900
C566        C  0.17462970  0.58128052  0.61545475     0.36800
N567        N  0.12647195  0.78316266  0.60406301    -0.43400
N568        N  0.18454455  0.54748831  0.61666978    -0.43400
C569        C  0.30230364  0.79670195  0.63300478     0.00200
C570        C  0.30724118  0.75399286  0.62607861    -0.11700
C571        C  0.27375308  0.72925931  0.61755254     0.02400
C572        C  0.23535578  0.74375335  0.62746789     0.00100
C573        C  0.23162009  0.78453520  0.61324090    -0.11600
C574        C  0.26593568  0.81072239  0.61443734     0.02300
H575        H  0.33537534  0.74024577  0.61960162     0.15300
H576        H  0.20271250  0.79700735  0.60412991     0.15300
C577        C  0.26807028  0.84179302  0.58448518     0.36900
C578        C  0.27711807  0.69986849  0.58570962     0.36800
N579        N  0.27001458  0.86560290  0.55929148    -0.43400
N580        N  0.27948927  0.67666370  0.55982845    -0.43400
C581        C  0.30573244  0.85337229  0.68942825     0.00200
C582        C  0.31951643  0.86579735  0.72772731    -0.11700
C583        C  0.29226052  0.87605162  0.75866667     0.02400
C584        C  0.25065347  0.86857606  0.75322183     0.00100
C585        C  0.23968306  0.88055373  0.71374644    -0.11600
C586        C  0.26749728  0.87356887  0.68162950     0.02300
H587        H  0.34977039  0.87731903  0.73064348     0.15300
H588        H  0.20879304  0.88928422  0.70644043     0.15300
C589        C  0.26219388  0.90026270  0.64820049     0.36900
C590        C  0.30313817  0.91036734  0.78322275     0.36800
N591        N  0.25749191  0.92402102  0.62322841    -0.43400
N592        N  0.31176663  0.93837301  0.80229383    -0.43400
C593        C  0.30135376  0.69261636  0.74831945     0.00200
C594        C  0.30726548  0.67858950  0.70890378    -0.11700
C595        C  0.27454505  0.67702255  0.68152900     0.02400
C596        C  0.23705283  0.69698578  0.69116930     0.00100
C597        C  0.22866065  0.69261412  0.73205263    -0.11600
C598        C  0.26029818  0.68576902  0.75974072     0.02300
H599        H  0.33491181  0.66312002  0.70121259     0.15300
H600        H  0.19814902  0.68728949  0.74157657     0.15300
C601        C  0.25136484  0.65703979  0.79079619     0.36900
C602        C  0.27635624  0.64476249  0.65238261     0.36800
N603        N  0.24359064  0.63310154  0.81469147    -0.43400
N604        N  0.27799837  0.61770980  0.63031022    -0.43400
C605        C  0.25357267  0.80717513  0.80454562     0.00200
C606        C  0.24257281  0.76695362  0.81430130    -0.11700
C607        C  0.27350406  0.73789781  0.82113847     0.02400
C608        C  0.31234044  0.74571993  0.80562116     0.00100
C609        C  0.32355062  0.78578857  0.81528238    -0.11600
C610        C  0.29363685  0.81649731  0.81732567     0.02300
H611        H  0.21125139  0.75933103  0.81981950     0.15300
H612        H  0.35314696  0.79173703  0.82769338     0.15300
C613        C  0.30090927  0.84936782  0.84486529     0.36900
C614        C  0.27029435  0.71197362  0.85547939     0.36800
N615        N  0.30726422  0.87460518  0.86810469    -0.43400
N616        N  0.26810257  0.69171994  0.88347999    -0.43400
C617        C  0.36440520  0.74220769  0.74549888     0.00200
C618        C  0.37852096  0.78248512  0.75224492    -0.11700
C619        C  0.38228022  0.80970660  0.71994382     0.02400
C620        C  0.36591952  0.79839247  0.68282223     0.00100
C621        C  0.37684884  0.75723850  0.67561810    -0.11600
C622        C  0.37744973  0.72890269  0.70747179     0.02300
H623        H  0.39278617  0.79069716  0.77993378     0.15300
H624        H  0.39070511  0.74887811  0.64768669     0.15300
C625        C  0.40194527  0.69251289  0.70390656     0.36900
C626        C  0.41269954  0.84105538  0.72152041     0.36800
N627        N  0.42173952  0.66341950  0.70119220    -0.43400
N628        N  0.43695435  0.86627759  0.72244995    -0.43400
C629        C  0.85364141  0.18471389  0.78476920     0.00200
C630        C  0.86866839  0.20677907  0.81798328    -0.11700
C631        C  0.89197814  0.18809863  0.84820404     0.02400
C632        C  0.90384124  0.14720239  0.84434255     0.00100
C633        C  0.89101453  0.12541594  0.81104044    -0.11600
C634        C  0.86648379  0.14314032  0.78162704     0.02300
H635        H  0.86335059  0.23909420  0.82028438     0.15300
H636        H  0.90059257  0.09391604  0.80785277     0.15300
C637        C  0.85701964  0.11666229  0.74864453     0.36900
C638        C  0.90443182  0.21172237  0.88235057     0.36800
N639        N  0.85040532  0.09340797  0.72355582    -0.43400
N640        N  0.91419360  0.23042456  0.90997202    -0.43400
C641        C  0.72900390  0.19278328  0.67808153     0.00200
C642        C  0.72469405  0.18845339  0.72026784    -0.11700
C643        C  0.75761115  0.17682749  0.74527080     0.02400
C644        C  0.79753184  0.17709122  0.72962800     0.00100
C645        C  0.79717360  0.16171965  0.68967625    -0.11600
C646        C  0.76150699  0.16664231  0.66487923     0.02300
H647        H  0.69646761  0.19116788  0.73499866     0.15300
H648        H  0.82425430  0.14974259  0.67618670     0.15300
C649        C  0.75912958  0.14443185  0.62795265     0.36900
C650        C  0.75094000  0.17188590  0.78743747     0.36800
N651        N  0.75720540  0.12597583  0.59860898    -0.43400
N652        N  0.74556968  0.16799548  0.82124469    -0.43400
C653        C  0.79813591  0.29997260  0.61666781     0.00200
C654        C  0.75847323  0.31574724  0.61240597    -0.11700
C655        C  0.72450753  0.29059368  0.61155744     0.02400
C656        C  0.73005756  0.24880507  0.61980756     0.00100
C657        C  0.76522939  0.23524692  0.59794593    -0.11600
C658        C  0.79985757  0.26195572  0.59492073     0.02300
H659        H  0.75494226  0.34524196  0.59932630     0.15300
H660        H  0.76780944  0.20490384  0.58646599     0.15300
C661        C  0.83407121  0.24934501  0.57122196     0.36900
C662        C  0.69321858  0.30344112  0.58373906     0.36800
N663        N  0.86094575  0.23915842  0.55131079    -0.43400
N664        N  0.66851121  0.31412360  0.56136227    -0.43400
C665        C  0.86557120  0.29340764  0.66600592     0.00200
C666        C  0.87718432  0.25296119  0.65452059    -0.11700
C667        C  0.87738237  0.22036844  0.68357838     0.02400
C668        C  0.86579606  0.22899140  0.72385557     0.00100
C669        C  0.87742447  0.26898457  0.73453928    -0.11600
C670        C  0.88100662  0.29973010  0.70524262     0.02300
H671        H  0.88485786  0.24619296  0.62426320     0.15300
H672        H  0.88125796  0.27714253  0.76554509     0.15300
C673        C  0.91204642  0.32962476  0.71236643     0.36900
C674        C  0.89329472  0.18107557  0.67275294     0.36800
N675        N  0.93745959  0.35298908  0.71830433    -0.43400
N676        N  0.90691446  0.14977740  0.66403945    -0.43400
C677        C  0.85674313  0.35354391  0.61603274     0.00200
C678        C  0.88330995  0.38041579  0.63575093    -0.11700
C679        C  0.91057541  0.40506393  0.61540629     0.02400
C680        C  0.91077190  0.40507147  0.57353651     0.00100
C681        C  0.88219338  0.38175239  0.55320155    -0.11600
C682        C  0.85468098  0.35707567  0.57336310     0.02300
H683        H  0.88241527  0.38293506  0.66768726     0.15300
H684        H  0.88080134  0.38346719  0.52092782     0.15300
C685        C  0.82403010  0.33958321  0.54787009     0.36900
C686        C  0.93923737  0.42833579  0.63858278     0.36800
N687        N  0.79995964  0.32687184  0.52597783    -0.43400
N688        N  0.96233405  0.44659695  0.65738902    -0.43400
C689        C  0.67239465  0.31960936  0.73125403     0.00200
C690        C  0.65961200  0.27989279  0.74285045    -0.11700
C691        C  0.65687745  0.24776360  0.71456486     0.02400
C692        C  0.67154973  0.25336136  0.67517913     0.00100
C693        C  0.66050824  0.29347953  0.66368569    -0.11600
C694        C  0.66280147  0.32693813  0.69080434     0.02300
H695        H  0.65612424  0.27194784  0.77373583     0.15300
H696        H  0.64490703  0.29761677  0.63581066     0.15300
C697        C  0.64353680  0.36478090  0.68000174     0.36900
C698        C  0.62808770  0.21619151  0.72327350     0.36800
N699        N  0.62794081  0.39514439  0.67133078    -0.43400
N700        N  0.60449648  0.19153159  0.73078865    -0.43400
C701        C  0.73616838  0.30359647  0.76795091     0.00200
C702        C  0.74874770  0.28492917  0.73340180    -0.11700
C703        C  0.78303161  0.26365534  0.73144633     0.02400
C704        C  0.80180612  0.24459029  0.76354150     0.00100
C705        C  0.78633676  0.25761154  0.80143542    -0.11600
C706        C  0.75515943  0.28892629  0.80389109     0.02300
H707        H  0.73555907  0.29376369  0.70491079     0.15300
H708        H  0.79690995  0.24356969  0.82862779     0.15300
C709        C  0.74418818  0.30412599  0.84261608     0.36900
C710        C  0.79206089  0.25319176  0.69345646     0.36800
N711        N  0.73584375  0.31578878  0.87412310    -0.43400
N712        N  0.80101361  0.23648426  0.66557517    -0.43400
C713        C  0.74208381  0.36644016  0.73024872     0.00200
C714        C  0.73868939  0.37883272  0.68998919    -0.11700
C715        C  0.77343204  0.37787940  0.66477757     0.02400
C716        C  0.80720400  0.35251061  0.67509216     0.00100
C717        C  0.81466839  0.35675424  0.71677323    -0.11600
C718        C  0.78323723  0.36724897  0.74369700     0.02300
H719        H  0.71172903  0.39423559  0.67987038     0.15300
H720        H  0.84440443  0.35644678  0.72927608     0.15300
C721        C  0.79315818  0.37401794  0.78509716     0.36900
C722        C  0.77593917  0.40619182  0.63209407     0.36800
N723        N  0.80133997  0.37981898  0.81817260    -0.43400
N724        N  0.77796134  0.42874245  0.60582770    -0.43400
C725        C  0.62895702  0.13637142  0.35201043     0.00200
C726        C  0.65470784  0.11554847  0.32582900    -0.11700
C727        C  0.68114063  0.13586150  0.30014121     0.02400
C728        C  0.68230644  0.17945077  0.29982179     0.00100
C729        C  0.65689749  0.19945420  0.32770421    -0.11600
C730        C  0.62975271  0.17897907  0.35236162     0.02300
H731        H  0.65452560  0.08257748  0.32569982     0.15300
H732        H  0.65919226  0.23167070  0.33178798     0.15300
C733        C  0.60436879  0.20275695  0.37875454     0.36900
C734        C  0.70696381  0.10904271  0.27736096     0.36800
N735        N  0.58391009  0.22208603  0.39955450    -0.43400
N736        N  0.72680591  0.08541992  0.26054524    -0.43400
C737        C  0.68554576  0.86537994  0.63580776     0.00200
C738        C  0.68200372  0.85009920  0.59652556    -0.11700
C739        C  0.65821860  0.86984392  0.56747017     0.02400
C740        C  0.63645590  0.90531215  0.57732375     0.00100
C741        C  0.63905733  0.92070025  0.61575337    -0.11600
C742        C  0.66184519  0.90082661  0.64509320     0.02300
H743        H  0.69501834  0.82125023  0.58845558     0.15300
H744        H  0.62151958  0.94771316  0.62338059     0.15300
C745        C  0.65644388  0.91692499  0.68468851     0.36900
C746        C  0.65670275  0.85325625  0.52765496     0.36800
N747        N  0.64926274  0.93182741  0.71515858    -0.43400
N748        N  0.65571351  0.84012262  0.49566336    -0.43400
C749        C  0.69067750  0.87193055  0.29525115     0.00200
C750        C  0.67199353  0.85254880  0.32790135    -0.11700
C751        C  0.64481314  0.87219737  0.35343272     0.02400
C752        C  0.63597474  0.91357920  0.34821160     0.00100
C753        C  0.65580117  0.93450643  0.31787503    -0.11600
C754        C  0.68258906  0.91463240  0.29138974     0.02300
H755        H  0.67940785  0.82155191  0.33487556     0.15300
H756        H  0.64987647  0.96681117  0.31455770     0.15300
C757        C  0.70065586  0.94059685  0.26207671     0.36900
C758        C  0.62800521  0.84915905  0.38589891     0.36800
N759        N  0.71445044  0.96329740  0.23972946    -0.43400
N760        N  0.61460467  0.83033646  0.41167066    -0.43400
C761        C  0.35739028  0.85312520  0.62973956     0.00200
C762        C  0.36094919  0.89532573  0.63787020    -0.11700
C763        C  0.38391823  0.92114630  0.61396708     0.02400
C764        C  0.40530763  0.90538761  0.58122822     0.00100
C765        C  0.40323248  0.86394865  0.57308482    -0.11600
C766        C  0.37969562  0.83792959  0.59624554     0.02300
H767        H  0.34658503  0.90916611  0.66339694     0.15300
H768        H  0.41949320  0.85183274  0.54753274     0.15300
C769        C  0.37961725  0.79642974  0.58263763     0.36900
C770        C  0.38633743  0.96357365  0.62476672     0.36800
N771        N  0.38176632  0.76429111  0.56865736    -0.43400
N772        N  0.38832567  0.99758253  0.63331814    -0.43400
C773        C  0.67338850  0.19272199  0.62442214     0.00200
C774        C  0.65174143  0.16315960  0.64622322    -0.11700
C775        C  0.62649557  0.13453277  0.62794652     0.02400
C776        C  0.62298743  0.13380119  0.58645795     0.00100
C777        C  0.64421823  0.16179463  0.56399176    -0.11600
C778        C  0.66920084  0.19083963  0.58171969     0.02300
H779        H  0.65580446  0.16088892  0.67796150     0.15300
H780        H  0.64135675  0.16060266  0.53173021     0.15300
C781        C  0.68970620  0.21565409  0.55298916     0.36900
C782        C  0.60443056  0.10640543  0.65243932     0.36800
N783        N  0.70538982  0.23343385  0.52771985    -0.43400
N784        N  0.58663924  0.08416918  0.67232942    -0.43400
C785        C  0.40525074  0.91192099  0.34373954     0.00200
C786        C  0.41236814  0.87003983  0.34374511    -0.11700
C787        C  0.39107573  0.84390686  0.31843934     0.02400
C788        C  0.36094983  0.85938256  0.29159377     0.00100
C789        C  0.35603744  0.90216187  0.29031583    -0.11600
C790        C  0.37704604  0.92808722  0.31625166     0.02300
H791        H  0.43483751  0.85731743  0.36402710     0.15300
H792        H  0.33624346  0.91644998  0.26877561     0.15300
C793        C  0.36976002  0.97125407  0.31280021     0.36900
C794        C  0.40408375  0.80198325  0.31973729     0.36800
N795        N  0.36354585  0.00577603  0.30987160    -0.43400
N796        N  0.41694187  0.76919471  0.32158436    -0.43400
C797        C  0.24124906  0.73828857  0.28640922     0.00200
C798        C  0.23356409  0.77879962  0.30093653    -0.11700
C799        C  0.26481755  0.80967307  0.30487649     0.02400
C800        C  0.30622531  0.80168868  0.29385817     0.00100
C801        C  0.31343367  0.75960038  0.30287596    -0.11600
C802        C  0.28238937  0.72880274  0.29975488     0.02300
H803        H  0.20480907  0.78472357  0.31516589     0.15300
H804        H  0.34359294  0.74960309  0.31088856     0.15300
C805        C  0.29289331  0.69041023  0.31792770     0.36900
C806        C  0.25793193  0.84010069  0.33503988     0.36800
N807        N  0.30251252  0.66031492  0.33317036    -0.43400
N808        N  0.25241558  0.86338044  0.36039918    -0.43400
C809        C  0.13382660  0.64142001  0.34960308     0.00200
C810        C  0.11488688  0.67211602  0.32765866    -0.11700
C811        C  0.13629602  0.69530627  0.29974188     0.02400
C812        C  0.17897081  0.68809481  0.29324727     0.00100
C813        C  0.19713474  0.65712200  0.31678857    -0.11600
C814        C  0.17532102  0.63400948  0.34418632     0.02300
H815        H  0.08259771  0.67751770  0.33194610     0.15300
H816        H  0.22839252  0.64879371  0.31227066     0.15300
C817        C  0.19607520  0.60217081  0.36593331     0.36900
C818        C  0.11166150  0.72521703  0.27945879     0.36800
N819        N  0.21263647  0.57665989  0.38340649    -0.43400
N820        N  0.09024719  0.74857986  0.26419387    -0.43400
C821        C  0.17632015  0.80050415  0.17060905     0.00200
C822        C  0.15995341  0.76061718  0.16336635    -0.11700
C823        C  0.16155281  0.72974032  0.19414832     0.02400
C824        C  0.18037705  0.73886918  0.23189348     0.00100
C825        C  0.17346493  0.78074012  0.24075688    -0.11600
C826        C  0.16856491  0.81056289  0.21064609     0.02300
H827        H  0.14842134  0.75208983  0.13471029     0.15300
H828        H  0.16362915  0.78911101  0.27009699     0.15300
C829        C  0.14162714  0.84441806  0.21877510     0.36900
C830        C  0.13953012  0.69286755  0.18774286     0.36800
N831        N  0.11987112  0.87140753  0.22530420    -0.43400
N832        N  0.11922026  0.66492108  0.18209345    -0.43400
C833        C  0.24291877  0.84857551  0.17320012     0.00200
C834        C  0.23469241  0.86579867  0.21161512    -0.11700
C835        C  0.26596415  0.87130129  0.24116256     0.02400
C836        C  0.30678299  0.85813585  0.23333577     0.00100
C837        C  0.31475796  0.86201461  0.19205725    -0.11600
C838        C  0.28318018  0.86090938  0.16272754     0.02300
H839        H  0.20555881  0.87921909  0.21741277     0.15300
H840        H  0.34398071  0.87314635  0.18335595     0.15300
C841        C  0.28884978  0.88796983  0.12952462     0.36900
C842        C  0.25810764  0.90061290  0.27216496     0.36800
N843        N  0.29368636  0.91095262  0.10399754    -0.43400
N844        N  0.25175452  0.92533776  0.29598745    -0.43400
C845        C  0.18442771  0.85853462  0.11916368     0.00200
C846        C  0.18995156  0.90085609  0.12593766    -0.11700
C847        C  0.16971497  0.93066416  0.10316230     0.02400
C848        C  0.14249410  0.91912268  0.07298118     0.00100
C849        C  0.13570012  0.87814665  0.06632146    -0.11600
C850        C  0.15566119  0.84808837  0.08865544     0.02300
H851        H  0.21011737  0.91177693  0.14889500     0.15300
H852        H  0.11422663  0.86949445  0.04319929     0.15300
C853        C  0.14448751  0.80745812  0.07767394     0.36900
C854        C  0.17792289  0.97302155  0.11080005     0.36800
N855        N  0.13260796  0.77671548  0.06575845    -0.43400
N856        N  0.18461476  0.00696026  0.11676515    -0.43400
C857        C  0.34774695  0.74292970  0.17573197     0.00200
C858        C  0.37525718  0.77632377  0.16609885    -0.11700
C859        C  0.38393155  0.80868623  0.19644064     0.02400
C860        C  0.37017726  0.80435381  0.23806532     0.00100
C861        C  0.36711191  0.76261290  0.24189844    -0.11600
C862        C  0.33746439  0.74862041  0.21574009     0.02300
H863        H  0.38910779  0.77794945  0.13703216     0.15300
H864        H  0.39543262  0.74539055  0.24164738     0.15300
C865        C  0.30123691  0.77287602  0.21836875     0.36900
C866        C  0.41236743  0.84017967  0.18699492     0.36800
N867        N  0.27084016  0.78958630  0.22350342    -0.43400
N868        N  0.43525971  0.86546295  0.17946033    -0.43400
C869        C  0.22944917  0.66867716  0.23764169     0.00200
C870        C  0.27040592  0.67327121  0.23885590    -0.11700
C871        C  0.28186167  0.69570381  0.20621061     0.02400
C872        C  0.29234407  0.67849544  0.17215054     0.00100
C873        C  0.25912234  0.64740711  0.16685478    -0.11600
C874        C  0.22482611  0.64585076  0.19835037     0.02300
H875        H  0.28898076  0.64669069  0.24558716     0.15300
H876        H  0.25761048  0.62874404  0.14044478     0.15300
C877        C  0.19396782  0.61553717  0.19440828     0.36900
C878        C  0.25316569  0.72305226  0.18882909     0.36800
N879        N  0.16963990  0.59053592  0.19139672    -0.43400
N880        N  0.23596245  0.74783920  0.17328074    -0.43400
C881        C  0.29562216  0.73759236  0.11570072     0.00200
C882        C  0.30498265  0.77857549  0.10739397    -0.11700
C883        C  0.27361309  0.80687979  0.09883213     0.02400
C884        C  0.23375289  0.79784320  0.11069924     0.00100
C885        C  0.22527045  0.75696643  0.09814028    -0.11600
C886        C  0.25700379  0.72670930  0.09942490     0.02300
H887        H  0.33576364  0.78655407  0.10044341     0.15300
H888        H  0.19523541  0.74649056  0.09227890     0.15300
C889        C  0.24942857  0.68665094  0.08410367     0.36900
C890        C  0.27837378  0.83094132  0.06335159     0.36800
N891        N  0.24322457  0.65506186  0.07025416    -0.43400
N892        N  0.28198292  0.84939812  0.03432242    -0.43400
C893        C  0.63988583  0.41022723  0.08514319     0.00200
C894        C  0.64591748  0.41855725  0.12550750    -0.11700
C895        C  0.66455905  0.38989083  0.15063295     0.02400
C896        C  0.68061187  0.35298899  0.13432987     0.00100
C897        C  0.67126800  0.34435958  0.09406192    -0.11600
C898        C  0.65189156  0.37241780  0.06957812     0.02300
H899        H  0.63462882  0.44703803  0.13772506     0.15300
H900        H  0.67881390  0.31513714  0.08106626     0.15300
C901        C  0.64488160  0.36143832  0.02838323     0.36900
C902        C  0.66543587  0.40013817  0.19242928     0.36800
N903        N  0.63931267  0.35233090  0.99549769    -0.43400
N904        N  0.66589405  0.41009571  0.22554536    -0.43400
C905        C  0.63917588  0.64230640  0.85198064     0.00200
C906        C  0.64486610  0.63059854  0.81238683    -0.11700
C907        C  0.66434383  0.65627142  0.78527130     0.02400
C908        C  0.68087749  0.69404835  0.79842004     0.00100
C909        C  0.67248103  0.70572379  0.83817309    -0.11600
C910        C  0.65270884  0.68042787  0.86472816     0.02300
H911        H  0.63270381  0.60180661  0.80226073     0.15300
H912        H  0.68115630  0.73484674  0.84958240     0.15300
C913        C  0.64730406  0.69435380  0.90528736     0.36900
C914        C  0.66474104  0.64272818  0.74439527     0.36800
N915        N  0.64322443  0.70577041  0.93767834    -0.43400
N916        N  0.66393540  0.63037628  0.71208204    -0.43400
C917        C  0.64986758  0.64444569  0.08298244     0.00200
C918        C  0.65072182  0.68620221  0.07553818    -0.11700
C919        C  0.67470740  0.71239611  0.09839891     0.02400
C920        C  0.69747570  0.69737709  0.13152064     0.00100
C921        C  0.69751132  0.65481687  0.13768963    -0.11600
C922        C  0.67480169  0.62852759  0.11339816     0.02300
H923        H  0.63310546  0.69848967  0.05091211     0.15300
H924        H  0.71418301  0.64151806  0.16229846     0.15300
C925        C  0.67619277  0.58549881  0.12152400     0.36900
C926        C  0.67688686  0.75382326  0.08469949     0.36800
N927        N  0.67750607  0.55100379  0.12797702    -0.43400
N928        N  0.67905356  0.78657107  0.07245009    -0.43400
C929        C  0.41489937  0.64311893  0.85404532     0.00200
C930        C  0.38720874  0.62320619  0.82902277    -0.11700
C931        C  0.36235695  0.64441940  0.80180463     0.02400
C932        C  0.36360376  0.68779366  0.79992022     0.00100
C933        C  0.39301364  0.70693498  0.82433878    -0.11600
C934        C  0.41819585  0.68554972  0.85082277     0.02300
H935        H  0.38527007  0.59037254  0.83028875     0.15300
H936        H  0.39633859  0.73935004  0.82345689     0.15300
C937        C  0.44600753  0.70857054  0.87525680     0.36900
C938        C  0.33781445  0.61920718  0.77629655     0.36800
N939        N  0.46820035  0.72727290  0.89469550    -0.43400
N940        N  0.31891754  0.59749816  0.75649113    -0.43400
C941        C  0.69021631  0.36755282  0.79011263     0.00200
C942        C  0.66608770  0.34811982  0.81897996    -0.11700
C943        C  0.64485497  0.36956203  0.84873172     0.02400
C944        C  0.64735086  0.41222449  0.85110059     0.00100
C945        C  0.67169176  0.43213733  0.82349097    -0.11600
C946        C  0.69201377  0.41110280  0.79288989     0.02300
H947        H  0.66413009  0.31554059  0.81923089     0.15300
H948        H  0.67352402  0.46501565  0.82475833     0.15300
C949        C  0.71201469  0.43696120  0.76457295     0.36900
C950        C  0.62171506  0.34653460  0.87711467     0.36800
N951        N  0.72766820  0.45879430  0.74258658    -0.43400
N952        N  0.60327956  0.32780012  0.89973595    -0.43400
C953        C  0.35484805  0.68523977  0.12448441     0.00200
C954        C  0.36167131  0.69018945  0.08324197    -0.11700
C955        C  0.39233129  0.66861140  0.06362449     0.02400
C956        C  0.41634850  0.64044933  0.08473361     0.00100
C957        C  0.41048508  0.63540938  0.12556017    -0.11600
C958        C  0.38078909  0.65805226  0.14574177     0.02300
H959        H  0.34370147  0.71119012  0.06567712     0.15300
H960        H  0.42916449  0.61364723  0.14170902     0.15300
C961        C  0.37794916  0.65262912  0.18832900     0.36900
C962        C  0.39823434  0.67547908  0.02153783     0.36800
N963        N  0.37587773  0.64819102  0.22244227    -0.43400
N964        N  0.40318096  0.68111913  0.98790492    -0.43400
C965        C  0.36126116  0.37488004  0.80164909     0.00200
C966        C  0.40407497  0.37322414  0.79574169    -0.11700
C967        C  0.43140820  0.39642628  0.81812257     0.02400
C968        C  0.41697878  0.42235823  0.84817558     0.00100
C969        C  0.37514868  0.42499763  0.85451413    -0.11600
C970        C  0.34762631  0.40104144  0.83308305     0.02300
H971        H  0.41777762  0.35310453  0.77433061     0.15300
H972        H  0.36388352  0.44407991  0.87856565     0.15300
C973        C  0.30734886  0.40095828  0.84953871     0.36900
C974        C  0.47417584  0.39339088  0.80890106     0.36800
N975        N  0.27665132  0.40227929  0.86622088    -0.43400
N976        N  0.50838275  0.39085729  0.80133852    -0.43400
C977        C  0.25031896  0.37142476  0.68021697     0.00200
C978        C  0.23600896  0.38331654  0.71797557    -0.11700
C979        C  0.26295594  0.38722038  0.75086146     0.02400
C980        C  0.30467565  0.37615659  0.74626681     0.00100
C981        C  0.31754314  0.38882007  0.70843770    -0.11600
C982        C  0.29046149  0.38774438  0.67523230     0.02300
H983        H  0.20557332  0.39572574  0.72003819     0.15300
H984        H  0.34638020  0.40334673  0.70570074     0.15300
C985        C  0.30483381  0.40358742  0.63790751     0.36900
C986        C  0.25224602  0.41960928  0.77797652     0.36800
N987        N  0.31757470  0.41648459  0.60851669    -0.43400
N988        N  0.24258767  0.44665962  0.79801855    -0.43400
C989        C  0.15040214  0.40814776  0.56911728     0.00200
C990        C  0.13167557  0.38347580  0.59710150    -0.11700
C991        C  0.15427463  0.35912518  0.62355496     0.02400
C992        C  0.19797745  0.35955776  0.62298690     0.00100
C993        C  0.21590221  0.38350688  0.59294830    -0.11600
C994        C  0.19290050  0.40763364  0.56663314     0.02300
H995        H  0.09870210  0.38333782  0.59829371     0.15300
H996        H  0.24836041  0.38296713  0.58926995     0.15300
C997        C  0.21365836  0.43199799  0.53756893     0.36900
C998        C  0.12975689  0.33475606  0.64951401     0.36800
N999        N  0.23036455  0.45155691  0.51433221    -0.43400
N1000       N  0.10836367  0.31569197  0.66919670    -0.43400
C1001       C  0.25175003  0.25375476  0.80616867     0.00200
C1002       C  0.29330738  0.25071322  0.81840299    -0.11700
C1003       C  0.31632087  0.28627027  0.82453873     0.02400
C1004       C  0.30325192  0.32221972  0.80552466     0.00100
C1005       C  0.26033212  0.32657955  0.81054493    -0.11600
C1006       C  0.23587252  0.29205925  0.81693641     0.02300
H1007       H  0.30714468  0.22290820  0.82784222     0.15300
H1008       H  0.24638010  0.35551917  0.81572093     0.15300
C1009       C  0.20563747  0.29407250  0.84784567     0.36900
C1010       C  0.34712682  0.28720008  0.85532392     0.37200
N1011       N  0.18228080  0.29525283  0.87350566    -0.43400
N1012       N  0.37167673  0.28766595  0.88009964    -0.43400
C1013       C  0.20384199  0.24892415  0.74391597     0.00200
C1014       C  0.19852905  0.23648523  0.70376167    -0.11700
C1015       C  0.19905643  0.26432169  0.67211752     0.02400
C1016       C  0.20479623  0.30586084  0.68094911     0.00100
C1017       C  0.18668949  0.31610323  0.71810104    -0.11600
C1018       C  0.18448491  0.28728529  0.74911000     0.02300
H1019       H  0.18548937  0.20747849  0.69748688     0.15300
H1020       H  0.17001613  0.34418376  0.72142715     0.15300
C1021       C  0.15280383  0.29296399  0.77814692     0.36900
C1022       C  0.17837356  0.25207740  0.63612117     0.36800
N1023       N  0.12637854  0.29769380  0.80036867    -0.43400
N1024       N  0.16024839  0.24145673  0.60841577    -0.43400
C1025       C  0.19399524  0.20048343  0.80445777     0.00200
C1026       C  0.15399018  0.19500472  0.78958980    -0.11700
C1027       C  0.12508847  0.17171667  0.80956078     0.02400
C1028       C  0.13563793  0.15206108  0.84546195     0.00100
C1029       C  0.17464491  0.15817992  0.86104972    -0.11600
C1030       C  0.20363893  0.18117932  0.84125781     0.02300
H1031       H  0.14468543  0.20771489  0.76135056     0.15300
H1032       H  0.18335169  0.14379079  0.88887917     0.15300
C1033       C  0.24272606  0.18273439  0.86066353     0.36900
C1034       C  0.08526953  0.16891930  0.79169156     0.36800
N1035       N  0.27268812  0.18213077  0.87884059    -0.43400
N1036       N  0.05366865  0.16746605  0.77650316    -0.43400
C1037       C  0.37309231  0.24561076  0.70151044     0.00200
C1038       C  0.38635582  0.28410518  0.68750746    -0.11700
C1039       C  0.37892429  0.31955184  0.71134009     0.02400
C1040       C  0.35957178  0.31526842  0.74976018     0.00100
C1041       C  0.37350575  0.27827415  0.76639015    -0.11600
C1042       C  0.37940183  0.24306592  0.74307080     0.02300
H1043       H  0.39427820  0.28775640  0.65642089     0.15300
H1044       H  0.38662072  0.27876482  0.79570185     0.15300
C1045       C  0.40946427  0.21486652  0.75815378     0.36900
C1046       C  0.40073775  0.35523153  0.69953524     0.36800
N1047       N  0.43445632  0.19339706  0.77062257    -0.43400
N1048       N  0.41941171  0.38311013  0.68981863    -0.43400
C1049       C  0.31473780  0.24702086  0.65004290     0.00200
C1050       C  0.28715991  0.24103747  0.61662482    -0.11700
C1051       C  0.25849800  0.27396548  0.60614998     0.02400
C1052       C  0.26121147  0.31238416  0.62730528     0.00100
C1053       C  0.30038697  0.31571317  0.64052629    -0.11600
C1054       C  0.30899632  0.28509897  0.66639196     0.02300
H1055       H  0.28699371  0.21312459  0.59972442     0.15300
H1056       H  0.32260785  0.31884331  0.61687168     0.15300
C1057       C  0.29110382  0.28621721  0.70436752     0.36900
C1058       C  0.23536929  0.27168725  0.56975606     0.36800
N1059       N  0.27644080  0.28738901  0.73503720    -0.43400
N1060       N  0.21725608  0.27010532  0.54017906    -0.43400
C1061       C  0.25401131  0.18738034  0.75985108     0.00200
C1062       C  0.29467204  0.17856715  0.77051809    -0.11700
C1063       C  0.32474252  0.17669188  0.74049008     0.02400
C1064       C  0.31421273  0.19110416  0.70219690     0.00100
C1065       C  0.27376900  0.18081211  0.69142770    -0.11600
C1066       C  0.24616833  0.17129210  0.72184623     0.02300
H1067       H  0.30099171  0.16598477  0.79961057     0.15300
H1068       H  0.26312418  0.18013501  0.66105331     0.15300
C1069       C  0.21368661  0.14277235  0.71530698     0.36900
C1070       C  0.35677322  0.14679651  0.74404143     0.36800
N1071       N  0.18756763  0.12008462  0.70989592    -0.43400
N1072       N  0.38181744  0.12200055  0.74629766    -0.43400
C1073       C  0.40579239  0.13292560  0.59103645     0.00200
C1074       C  0.42873580  0.15891092  0.61507941    -0.11700
C1075       C  0.41082247  0.18569785  0.64246491     0.02400
C1076       C  0.36748092  0.18737826  0.64683900     0.00100
C1077       C  0.34525037  0.15871028  0.62400456    -0.11600
C1078       C  0.36355203  0.13211883  0.59654393     0.02300
H1079       H  0.46156021  0.15868755  0.61220507     0.15300
H1080       H  0.31291898  0.15660552  0.62694141     0.15300
C1081       C  0.33775721  0.10556228  0.57352932     0.36900
C1082       C  0.43961881  0.21023630  0.66407387     0.36800
N1083       N  0.31672831  0.08446591  0.55526123    -0.43400
N1084       N  0.46417071  0.22911798  0.68035542    -0.43400
C1085       C  0.14566124  0.41916045  0.34308587     0.00200
C1086       C  0.14435576  0.42441181  0.30177267    -0.11700
C1087       C  0.17011671  0.40252340  0.27626331     0.02400
C1088       C  0.19773481  0.37269628  0.29156716     0.00100
C1089       C  0.20145052  0.37064018  0.33356890    -0.11600
C1090       C  0.17557082  0.39289717  0.35905599     0.02300
H1091       H  0.12274964  0.44576465  0.28896322     0.15300
H1092       H  0.22459865  0.35180321  0.34719332     0.15300
C1093       C  0.18131050  0.38925462  0.40155577     0.36900
C1094       C  0.16868499  0.41432509  0.23494891     0.36800
N1095       N  0.18603359  0.38653832  0.43562547    -0.43400
N1096       N  0.16708828  0.42583621  0.20242898    -0.43400
C1097       C  0.19444649  0.25113963  0.18368859     0.00200
C1098       C  0.18710611  0.24429756  0.22507036    -0.11700
C1099       C  0.17878444  0.27658927  0.25136012     0.02400
C1100       C  0.18866687  0.31584579  0.23956275     0.00100
C1101       C  0.17470803  0.32137693  0.19949769    -0.11600
C1102       C  0.17604598  0.28836892  0.17184735     0.02300
H1103       H  0.17934916  0.21532839  0.23630739     0.15300
H1104       H  0.16563612  0.35077013  0.18860667     0.15300
C1105       C  0.14626968  0.28832450  0.14033678     0.36900
C1106       C  0.14623011  0.27156962  0.27954756     0.36800
N1107       N  0.12113293  0.28803918  0.11611824    -0.43400
N1108       N  0.11962856  0.26748009  0.30157073    -0.43400
C1109       C  0.14595130  0.15196287  0.06786158     0.00200
C1110       C  0.13392203  0.15590595  0.10766472    -0.11700
C1111       C  0.15607043  0.17862291  0.13547232     0.02400
C1112       C  0.19190433  0.19956319  0.12396237     0.00100
C1113       C  0.20327117  0.19578625  0.08334367    -0.11600
C1114       C  0.18112083  0.17265096  0.05573692     0.02300
H1115       H  0.10691089  0.14035954  0.11768973     0.15300
H1116       H  0.23029278  0.21001099  0.07219164     0.15300
C1117       C  0.19583876  0.17130578  0.01531968     0.36900
C1118       C  0.13940402  0.17908041  0.17506639     0.36800
N1119       N  0.20853784  0.17079172  0.98321851    -0.43400
N1120       N  0.12312597  0.17775822  0.20552253    -0.43400
C1121       C  0.30938058  0.24778186  0.28729359     0.00200
C1122       C  0.26956591  0.24192059  0.30197841    -0.11700
C1123       C  0.24207779  0.27525200  0.30529939     0.02400
C1124       C  0.25233745  0.31318440  0.28756567     0.00100
C1125       C  0.29420948  0.32048397  0.29197499    -0.11600
C1126       C  0.32178265  0.28797865  0.29714684     0.02300
H1127       H  0.26152965  0.21371630  0.31554987     0.15300
H1128       H  0.30432466  0.35045906  0.29946742     0.15300
C1129       C  0.35159493  0.29410796  0.32823669     0.36900
C1130       C  0.21227302  0.27346049  0.33658016     0.36800
N1131       N  0.37445188  0.29959642  0.35395737    -0.43400
N1132       N  0.18942422  0.27213675  0.36265100    -0.43400
C1133       C  0.30734093  0.18736707  0.23529842     0.00200
C1134       C  0.31431829  0.17747727  0.19432058    -0.11700
C1135       C  0.28150706  0.17090022  0.16814496     0.02400
C1136       C  0.24336555  0.18592558  0.17901360     0.00100
C1137       C  0.23617080  0.17380121  0.21890967    -0.11600
C1138       C  0.26871685  0.17282432  0.24709072     0.02300
H1139       H  0.34330657  0.16945377  0.18267641     0.15300
H1140       H  0.20754427  0.15988911  0.22626504     0.15300
C1141       C  0.26504932  0.14836771  0.28244648     0.36900
C1142       C  0.28500131  0.14144096  0.13628128     0.36800
N1143       N  0.26256259  0.12868215  0.31081064    -0.43400
N1144       N  0.28778317  0.11800176  0.11065165    -0.43400
C1145       C  0.35703172  0.18349953  0.29476438     0.00200
C1146       C  0.35541114  0.19172589  0.33627151    -0.11700
C1147       C  0.37758373  0.16870649  0.36394574     0.02400
C1148       C  0.40115665  0.13562989  0.35104347     0.00100
C1149       C  0.40130825  0.12512865  0.31099602    -0.11600
C1150       C  0.37999947  0.14830072  0.28285657     0.02300
H1151       H  0.33764494  0.21660571  0.34806300     0.15300
H1152       H  0.41903256  0.09886492  0.30151047     0.15300
C1153       C  0.38301923  0.13308587  0.24272528     0.36900
C1154       C  0.37600636  0.17971678  0.40559901     0.36800
N1155       N  0.38742714  0.11767772  0.21197553    -0.43400
N1156       N  0.37497631  0.18833764  0.43902503    -0.43400
C1157       C  0.36965656  0.29613255  0.18386791     0.00200
C1158       C  0.37867007  0.30567783  0.22410874    -0.11700
C1159       C  0.38716416  0.27376120  0.25086689     0.02400
C1160       C  0.37308450  0.23479661  0.24098048     0.00100
C1161       C  0.38467628  0.22590082  0.20164913    -0.11600
C1162       C  0.38468141  0.25699446  0.17278863     0.02300
H1163       H  0.38303610  0.33676098  0.23342265     0.15300
H1164       H  0.39917229  0.19709303  0.19516003     0.15300
C1165       C  0.41235437  0.25213836  0.13991753     0.36900
C1166       C  0.42128951  0.27736873  0.27770449     0.36800
N1167       N  0.43588039  0.24814553  0.11464028    -0.43400
N1168       N  0.44899828  0.27987456  0.29888979    -0.43400
C1169       C  0.31433268  0.34994690  0.18301623     0.00200
C1170       C  0.31958422  0.38181253  0.21240986    -0.11700
C1171       C  0.28583576  0.39072074  0.23963121     0.02400
C1172       C  0.24773271  0.36980714  0.23340310     0.00100
C1173       C  0.24527219  0.35871826  0.19418560    -0.11600
C1174       C  0.27644480  0.33281393  0.18533126     0.02300
H1175       H  0.34840067  0.39708337  0.21558430     0.15300
H1176       H  0.24228260  0.38410596  0.17374237     0.15300
C1177       C  0.27608215  0.29310141  0.20104041     0.36900
C1178       C  0.29027590  0.41978735  0.27146392     0.36800
N1179       N  0.27638430  0.26084701  0.21343927    -0.43400
N1180       N  0.29372488  0.44306188  0.29712946    -0.43400
C1181       C  0.32035915  0.30321922  0.12123507     0.00200
C1182       C  0.28081949  0.31581925  0.10820303    -0.11700
C1183       C  0.24717810  0.28869854  0.11227871     0.02400
C1184       C  0.25362224  0.24939798  0.13001523     0.00100
C1185       C  0.29280025  0.23527862  0.11841764    -0.11600
C1186       C  0.32544432  0.26193381  0.11182421     0.02300
H1187       H  0.27439669  0.34724234  0.10125509     0.15300
H1188       H  0.29532084  0.20595129  0.10471685     0.15300
C1189       C  0.35088793  0.25214739  0.07816824     0.36900
C1190       C  0.21349031  0.29655182  0.08601233     0.36800
N1191       N  0.37048222  0.24428303  0.05060816    -0.43400
N1192       N  0.18837680  0.30337894  0.06268112    -0.43400
C1193       C  0.41928291  0.41288937  0.08623787     0.00200
C1194       C  0.43912995  0.38544161  0.11155857    -0.11700
C1195       C  0.41760364  0.35960446  0.13692638     0.02400
C1196       C  0.37408312  0.35854738  0.13533274     0.00100
C1197       C  0.35480312  0.38889467  0.11213547    -0.11600
C1198       C  0.37657561  0.41588367  0.08826238     0.02300
H1199       H  0.47209912  0.38463935  0.11207806     0.15300
H1200       H  0.32212301  0.39186503  0.11258956     0.15300
C1201       C  0.35384866  0.44560057  0.06558730     0.36900
C1202       C  0.44248901  0.33729477  0.16490610     0.36800
N1203       N  0.33543603  0.46954425  0.04774063    -0.43400
N1204       N  0.46376253  0.32044731  0.18703183    -0.43400
loop_ 
_geom_bond_atom_site_label_1 
_geom_bond_atom_site_label_2 
_geom_bond_distance 
_geom_bond_site_symmetry_2 
_ccdc_geom_bond_type 
C1         C1157   1.582       .  S
C1         C1169   1.582       .  S
C1         C1181   1.632       .  S
C1         C1196   1.559       .  S
C2         C1121   1.637       .  S
C2         C1133   1.618       .  S
C2         C1145   1.557       .  S
C2         C1160   1.608       .  S
C3         C1097   1.623       .  S
C3         C1112   1.561       .  S
C3         C1136   1.623       .  S
C3         C1184   1.651       .  S
C4         C1088   1.558       .  S
C4         C1100   1.633       .  S
C4         C1124   1.616       .  S
C4         C1172   1.599       .  S
C5         C1037   1.629       .  S
C5         C1049   1.597       .  S
C5         C1064   1.580       .  S
C5         C1076   1.568       .  S
C6         C1001   1.615       .  S
C6         C1013   1.632       .  S
C6         C1025   1.552       .  S
C6         C1061   1.603       .  S
C7          C977   1.645       .  S
C7          C992   1.566       .  S
C7         C1016   1.600       .  S
C7         C1052   1.613       .  S
C8          C965   1.570       .  S
C8          C980   1.627       .  S
C8         C1004   1.627       .  S
C8         C1040   1.648       .  S
C9           N27   1.351       .  A
C9           C46   1.464       .  S
C9         C1193   1.491       .  S
N10          N27   1.326       .  A
N10          N32   1.317       .  A
N10         Co47   2.079   1_554  S
C11          N36   1.344       .  A
C11          C49   1.465       .  S
C11          H56   1.082       .  S
H12          C53   1.082       .  S
C13          N37   1.339       .  A
C13          C17   1.460       .  S
C13          H42   1.082       .  S
Co14         N32   2.089   1_556  S
Co14         N22   2.066   1_556  S
Co14         N54   2.086       .  S
Co14         N30   2.092       .  S
Co14        Cl58   2.446       .  S
N15          C53   1.343       .  A
N15          N22   1.321       .  A
N15         Co16   2.091   1_554  S
Co16         N19   2.093   1_556  S
Co16         N36   2.095       .  S
Co16         N23   2.096       .  S
Co16        Cl58   2.457       .  S
C17          N55   1.352       .  A
C17         C917   1.484       .  S
N18          N25   1.319       .  A
N18          N48   1.324       .  A
N18         Co51   2.083   1_554  S
N19          N37   1.320       .  A
N19          N55   1.328       .  A
N20          C49   1.352       .  A
N20          N30   1.327       .  A
H21          C46   1.082       .  S
N22          N43   1.318       .  A
N23          N41   1.322       .  A
N23          N28   1.326       .  A
C24          N28   1.352       .  A
C24          C52   1.452       .  S
C24         C905   1.467       .  S
N25          C40   1.336       .  A
N25         Co47   2.077   1_554  S
C26          N54   1.341       .  A
C26          C29   1.466       .  S
C26          H60   1.081       .  S
C29          N50   1.349       .  A
C29         C968   1.481       .  S
N30          N36   1.320       .  A
N31          C57   1.339       .  A
N31          N33   1.317       .  A
N31         Co47   2.077       .  S
N32          C46   1.342       .  A
N33          N61   1.327       .  A
N33         Co51   2.094       .  S
H34          C57   1.081       .  S
H35          C52   1.082       .  S
N37         Co51   2.083   1_554  S
N38          N50   1.322       .  A
N38          N54   1.319       .  A
N38         Co47   2.078       .  S
C39          N43   1.343       .  A
C39          C53   1.462       .  S
C39         C893   1.463       .  S
C40          C59   1.456       .  S
C40          H44   1.082       .  S
N41          C52   1.334       .  A
N41         Co51   2.073       .  S
C45          N61   1.355       .  A
C45          C57   1.460       .  S
C45         C929   1.492       .  S
Co47        Cl58   2.448       .  S
N48          C59   1.351       .  A
C49         C944   1.495       .  S
Co51        Cl58   2.449       .  S
C59         C956   1.465       .  S
C62         C857   1.685       .  S
C62         C872   1.695       .  S
C62         C881   1.612       .  S
C62         C953   1.531       .  S
C63         C821   1.653       .  S
C63         C833   1.669       .  S
C63         C845   1.569       .  S
C63         C884   1.646       .  S
C64         C797   1.721       .  S
C64         C812   1.569       .  S
C64         C824   1.649       .  S
C64         C869   1.700       .  S
C65         C788   1.552       .  S
C65         C800   1.712       .  S
C65         C836   1.654       .  S
C65         C860   1.676       .  S
C66          N84   1.347       .  A
C66         C103   1.455       .  S
C66        C1148   1.465       .  S
N67          N84   1.324       .  A
N67          N89   1.321       .  A
N67        Co104   2.083       .  S
C68          N93   1.341       .  A
C68         C106   1.464       .  S
C68         H113   1.081       .  S
H69         C110   1.081       .  S
C70          N94   1.341       .  A
C70          C74   1.464       .  S
C70          H99   1.082       .  S
Co71         N89   2.077       .  S
Co71         N79   2.087       .  S
Co71        N111   2.069       .  S
Co71         N87   2.073       .  S
Co71       Cl115   2.449       .  S
N72         C110   1.336       .  A
N72          N79   1.318       .  A
N72         Co73   2.071       .  S
Co73         N76   2.089   1_545  S
Co73         N93   2.089       .  S
Co73         N80   2.073   1_545  S
Co73       Cl115   2.443       .  S
C74         N112   1.350       .  A
C74         C752   1.483       .  S
N75          N82   1.319       .  A
N75         N105   1.323       .  A
N75        Co108   2.086       .  S
N76          N94   1.321       .  A
N76         N112   1.326       .  A
N77         C106   1.348       .  A
N77          N87   1.321       .  A
H78         C103   1.082       .  S
N79         N100   1.327       .  A
N80          N98   1.321       .  A
N80          N85   1.323       .  A
C81          N85   1.345       .  A
C81         C109   1.460       .  S
C81         C740   1.471       .  S
N82          C97   1.339       .  A
N82        Co104   2.078   1_565  S
C83         N111   1.333       .  A
C83          C86   1.455       .  S
C83         H117   1.081       .  S
C86         N107   1.357       .  A
C86        C1073   1.488       .  S
N87          N93   1.318       .  A
N88         C114   1.337       .  A
N88          N90   1.322       .  A
N88        Co104   2.075   1_565  S
N89         C103   1.338       .  A
N90         N118   1.325       .  A
N90        Co108   2.096       .  S
H91         C114   1.081       .  S
H92         C109   1.081       .  S
N94        Co108   2.092       .  S
N95         N107   1.330       .  A
N95         N111   1.318       .  A
N95        Co104   2.096       .  S
C96         N100   1.354       .  A
C96         C110   1.456       .  S
C96         C725   1.484       .  S
C97         C116   1.461       .  S
C97         H101   1.080       .  S
N98         C109   1.343       .  A
N98        Co108   2.090       .  S
C102        N118   1.352       .  A
C102        C114   1.456       .  S
C102        C764   1.477       .  S
Co104      Cl115   2.452       .  S
N105        C116   1.352       .  A
C106        C776   1.466       .  S
Co108      Cl115   2.454   1_565  S
C116        C785   1.483       .  S
C119        C689   1.620       .  S
C119        C701   1.580       .  S
C119        C713   1.622       .  S
C119        C941   1.569       .  S
C120        C653   1.638       .  S
C120        C665   1.668       .  S
C120        C677   1.560       .  S
C120        C716   1.648       .  S
C121        C641   1.650       .  S
C121        C656   1.639       .  S
C121        C692   1.656       .  S
C121        C773   1.564       .  S
C122        C629   1.556       .  S
C122        C644   1.639       .  S
C122        C668   1.630       .  S
C122        C704   1.615       .  S
C123        C593   1.628       .  S
C123        C608   1.608       .  S
C123        C617   1.620       .  S
C123        C932   1.561       .  S
C124        C569   1.623       .  S
C124        C581   1.649       .  S
C124        C620   1.623       .  S
C124        C761   1.559       .  S
C125        C545   1.599       .  S
C125        C557   1.555       .  S
C125        C572   1.628       .  S
C125        C596   1.618       .  S
C126        C533   1.561       .  S
C126        C548   1.580       .  S
C126        C584   1.633       .  S
C126        C605   1.581       .  S
C127        C497   1.646       .  S
C127        C512   1.663       .  S
C127        C521   1.641       .  S
C127        C749   1.567       .  S
C128        C464   1.665       .  S
C128        C473   1.635       .  S
C128        C485   1.561       .  S
C128        C524   1.646       .  S
C129        C449   1.581       .  S
C129        C461   1.628       .  S
C129        C500   1.635       .  S
C129        C920   1.548       .  S
C130        C437   1.574       .  S
C130        C452   1.595       .  S
C130        C476   1.630       .  S
C130        C509   1.648       .  S
C131        C401   1.640       .  S
C131        C413   1.658       .  S
C131        C425   1.648       .  S
C131        C908   1.553       .  S
C132        C365   1.605       .  S
C132        C377   1.614       .  S
C132        C389   1.564       .  S
C132        C416   1.620       .  S
C133        C353   1.634       .  S
C133        C368   1.623       .  S
C133        C404   1.630       .  S
C133        C737   1.552       .  S
C134        C344   1.558       .  S
C134        C356   1.655       .  S
C134        C380   1.635       .  S
C134        C428   1.645       .  S
C135        N153   1.353       .  A
C135        C172   1.469       .  S
C135       C1109   1.495       .  S
N136        N153   1.322       .  A
N136        N158   1.318   1_554  A
N136       Co173   2.084       .  S
C137        N162   1.343       .  A
C137        C175   1.466       .  S
C137        H182   1.080       .  S
H138        C179   1.077       .  S
C139        N163   1.345       .  A
C139        C143   1.465       .  S
C139        H168   1.081       .  S
Co140       N158   2.087       .  S
Co140       N148   2.078       .  S
Co140       N180   2.089   1_545  S
Co140       N156   2.098   1_545  S
Co140      Cl184   2.454       .  S
N141        C179   1.341       .  A
N141        N148   1.317       .  A
N141       Co142   2.076       .  S
Co142       N145   2.090   1_455  S
Co142       N162   2.092   1_545  S
Co142       N149   2.081   1_445  S
Co142      Cl184   2.453       .  S
C143        N181   1.351       .  A
C143        C632   1.481       .  S
N144        N151   1.319       .  A
N144        N174   1.325       .  A
N144       Co177   2.093   1_554  S
N145        N163   1.320       .  A
N145        N181   1.324       .  A
N146        C175   1.354       .  A
N146        N156   1.326       .  A
H147        C172   1.079   1_556  S
N148        N169   1.319       .  A
N149        N167   1.321       .  A
N149        N154   1.324       .  A
C150        N154   1.348       .  A
C150        C178   1.465       .  S
C150        C341   1.485       .  S
N151        C166   1.341       .  A
N151       Co173   2.080   1_655  S
C152        N180   1.343   1_554  A
C152        C155   1.459       .  S
C152        H186   1.081   1_554  S
C155        N176   1.348       .  A
C155        C848   1.476       .  S
N156        N162   1.321       .  A
N157        C183   1.337       .  A
N157        N159   1.321       .  A
N157       Co173   2.085   1_665  S
N158        C172   1.342   1_556  A
N159        N187   1.328       .  A
N159       Co177   2.100   1_564  S
H160        C183   1.080       .  S
H161        C178   1.082       .  S
N163       Co177   2.098       .  S
N164        N176   1.326       .  A
N164        N180   1.322   1_554  A
N164       Co173   2.089   1_565  S
C165        N169   1.351       .  A
C165        C179   1.468       .  S
C165       C1028   1.490       .  S
C166        C185   1.458       .  S
C166        H170   1.082       .  S
N167        C178   1.346       .  A
N167       Co177   2.101   1_565  S
C171        N187   1.356       .  A
C171        C183   1.464       .  S
C171        C440   1.495       .  S
Co173      Cl184   2.447   1_554  S
N174        C185   1.352       .  A
C175        C536   1.493       .  S
Co177      Cl184   2.461   1_655  S
C185        C329   1.475       .  S
C188        C293   1.664       .  S
C188        C305   1.653       .  S
C188        C320   1.644       .  S
C188        C728   1.565       .  S
C189        C269   1.629       .  S
C189        C281   1.666       .  S
C189        C317   1.647       .  S
C189        C332   1.566       .  S
C190        C257   1.567       .  S
C190        C272   1.613       .  S
C190        C296   1.616       .  S
C190        C896   1.541       .  S
C191        C248   1.562       .  S
C191        C260   1.602       .  S
C191        C284   1.646       .  S
C191        C308   1.646       .  S
C192        N210   1.354       .  A
C192        C229   1.463       .  S
C192       C1085   1.493       .  S
N193        N210   1.328       .  A
N193        N215   1.319       .  A
N193       Co230   2.093       .  S
C194        N219   1.337       .  A
C194        C232   1.464       .  S
C194        H239   1.081       .  S
H195        C236   1.081       .  S
C196        N220   1.336       .  A
C196        C200   1.459       .  S
C196        H225   1.081       .  S
Co197       N215   2.090       .  S
Co197       N205   2.091       .  S
Co197       N237   2.105   1_455  S
Co197       N213   2.094   1_455  S
Co197      Cl241   2.458       .  S
N198        C236   1.343       .  A
N198        N205   1.322       .  A
N198       Co199   2.094       .  S
Co199       N202   2.105       .  S
Co199       N219   2.085   1_455  S
Co199       N206   2.095   1_455  S
Co199      Cl241   2.455       .  S
C200        N238   1.358       .  A
C200        C560   1.491       .  S
N201        N208   1.320       .  A
N201        N231   1.326       .  A
N201       Co234   2.097       .  S
N202        N220   1.318       .  A
N202        N238   1.328       .  A
N203        C232   1.355       .  A
N203        N213   1.327       .  A
H204        C229   1.081       .  S
N205        N226   1.325       .  A
N206        N224   1.321       .  A
N206        N211   1.329       .  A
C207        N211   1.353       .  A
C207        C235   1.468       .  S
C207        C392   1.495       .  S
N208        C223   1.344       .  A
N208       Co230   2.091       .  S
C209        N237   1.348       .  A
C209        C212   1.469       .  S
C209        H243   1.082       .  S
C212        N233   1.349       .  A
C212        C245   1.493       .  S
N213        N219   1.320       .  A
N214        C240   1.339       .  A
N214        N216   1.320       .  A
N214       Co230   2.084   1_655  S
N215        C229   1.340       .  A
N216        N244   1.324       .  A
N216       Co234   2.075   1_655  S
H217        C240   1.082       .  S
H218        C235   1.082       .  S
N220       Co234   2.068       .  S
N221        N233   1.323       .  A
N221        N237   1.321       .  A
N221       Co230   2.088   1_655  S
C222        N226   1.349       .  A
C222        C236   1.460       .  S
C222        C809   1.476       .  S
C223        C242   1.462       .  S
C223        H227   1.081       .  S
N224        C235   1.342       .  A
N224       Co234   2.102   1_655  S
C228        N244   1.349       .  A
C228        C240   1.460       .  S
C228        C680   1.478       .  S
Co230      Cl241   2.454       .  S
N231        C242   1.352       .  A
C232        C488   1.493       .  S
Co234      Cl241   2.451       .  S
C242        C989   1.480       .  S
C245        C246   1.402       .  A
C245        C250   1.409       .  A
C246        H251   1.085       .  S
C246        C247   1.413       .  A
C247        C248   1.433       .  A
C247        C254   1.438       .  S
C248        C249   1.411       .  A
C249        H252   1.076       .  S
C249        C250   1.396       .  A
C250        C253   1.445       .  S
C253        N255   1.157       .  T
C254        N256   1.158       .  T
C257        C258   1.376       .  A
C257        C262   1.442       .  A
C258        H263   1.089       .  S
C258        C259   1.318       .  A
C259        C260   1.393       .  A
C259        C266   1.365       .  S
C260        C261   1.423       .  A
C261        H264   1.077       .  S
C261        C262   1.440       .  A
C262        C265   1.440       .  S
C265        N267   1.158       .  T
C266        N268   1.128       .  T
C269        C270   1.418       .  A
C269        C274   1.421       .  A
C270        H275   1.065       .  S
C270        C271   1.413       .  A
C271        C272   1.420       .  A
C271        C278   1.440       .  S
C272        C273   1.415       .  A
C273        H276   1.072       .  S
C273        C274   1.423       .  A
C274        C277   1.445       .  S
C277        N279   1.157       .  T
C278        N280   1.157       .  T
C281        C282   1.427       .  A
C281        C286   1.438       .  A
C282        H287   1.070       .  S
C282        C283   1.451       .  A
C283        C284   1.443       .  A
C283        C290   1.437       .  S
C284        C285   1.416       .  A
C285        H288   1.084       .  S
C285        C286   1.419       .  A
C286        C289   1.444       .  S
C289        N291   1.158       .  T
C290        N292   1.157       .  T
C293        C294   1.425       .  A
C293        C298   1.427       .  A
C294        H299   1.075       .  S
C294        C295   1.432       .  A
C295        C296   1.416       .  A
C295        C302   1.440       .  S
C296        C297   1.424       .  A
C297        H300   1.071       .  S
C297        C298   1.418       .  A
C298        C301   1.445       .  S
C301        N303   1.158       .  T
C302        N304   1.157       .  T
C305        C306   1.422       .  A
C305        C310   1.444       .  A
C306        H311   1.061       .  S
C306        C307   1.417       .  A
C307        C308   1.424       .  A
C307        C314   1.438       .  S
C308        C309   1.432       .  A
C309        H312   1.075       .  S
C309        C310   1.457       .  A
C310        C313   1.438       .  S
C313        N315   1.157       .  T
C314        N316   1.157       .  T
C317        C318   1.416       .  A
C317        C322   1.452       .  A
C318        H323   1.069       .  S
C318        C319   1.397       .  A
C319        C320   1.404       .  A
C319        C326   1.450       .  S
C320        C321   1.441       .  A
C321        H324   1.073       .  S
C321        C322   1.458       .  A
C322        C325   1.439       .  S
C325        N327   1.158       .  T
C326        N328   1.158       .  T
C329        C330   1.393       .  A
C329        C334   1.398       .  A
C330        H335   1.086       .  S
C330        C331   1.404       .  A
C331        C332   1.440       .  A
C331        C338   1.442       .  S
C332        C333   1.415       .  A
C333        H336   1.069       .  S
C333        C334   1.401       .  A
C334        C337   1.444       .  S
C337        N339   1.157       .  T
C338        N340   1.158       .  T
C341        C342   1.396       .  A
C341        C346   1.409       .  A
C342        H347   1.086       .  S
C342        C343   1.405       .  A
C343        C344   1.434       .  A
C343        C350   1.443       .  S
C344        C345   1.414       .  A
C345        H348   1.082       .  S
C345        C346   1.401       .  A
C346        C349   1.444       .  S
C349        N351   1.157       .  T
C350        N352   1.158       .  T
C353        C354   1.433       .  A
C353        C358   1.417       .  A
C354        H359   1.073       .  S
C354        C355   1.445       .  A
C355        C356   1.435       .  A
C355        C362   1.437       .  S
C356        C357   1.430       .  A
C357        H360   1.063       .  S
C357        C358   1.419       .  A
C358        C361   1.442       .  S
C361        N363   1.157       .  T
C362        N364   1.157       .  T
C365        C366   1.378       .  A
C365        C370   1.448       .  A
C366        H371   1.089       .  S
C366        C367   1.332       .  A
C367        C368   1.391       .  A
C367        C374   1.353       .  S
C368        C369   1.434       .  A
C369        H372   1.078       .  S
C369        C370   1.451       .  A
C370        C373   1.439       .  S
C373        N375   1.158       .  T
C374        N376   1.124       .  T
C377        C378   1.420       .  A
C377        C382   1.431       .  A
C378        H383   1.071       .  S
C378        C379   1.422       .  A
C379        C380   1.414       .  A
C379        C386   1.444       .  S
C380        C381   1.415       .  A
C381        H384   1.078       .  S
C381        C382   1.424       .  A
C382        C385   1.439       .  S
C385        N387   1.157       .  T
C386        N388   1.157       .  T
C389        C390   1.411       .  A
C389        C394   1.431       .  A
C390        H395   1.068       .  S
C390        C391   1.412       .  A
C391        C392   1.410       .  A
C391        C398   1.443       .  S
C392        C393   1.395       .  A
C393        H396   1.085       .  S
C393        C394   1.402       .  A
C394        C397   1.441       .  S
C397        N399   1.158       .  T
C398        N400   1.157       .  T
C401        C402   1.407       .  A
C401        C406   1.435       .  A
C402        H407   1.080       .  S
C402        C403   1.422       .  A
C403        C404   1.430       .  A
C403        C410   1.440       .  S
C404        C405   1.430       .  A
C405        H408   1.077       .  S
C405        C406   1.447       .  A
C406        C409   1.437       .  S
C409        N411   1.157       .  T
C410        N412   1.157       .  T
C413        C414   1.436       .  A
C413        C418   1.429       .  A
C414        H419   1.061       .  S
C414        C415   1.421       .  A
C415        C416   1.423       .  A
C415        C422   1.443       .  S
C416        C417   1.418       .  A
C417        H420   1.074       .  S
C417        C418   1.428       .  A
C418        C421   1.442       .  S
C421        N423   1.158       .  T
C422        N424   1.157       .  T
C425        C426   1.443       .  A
C425        C430   1.394       .  A
C426        H431   1.072       .  S
C426        C427   1.453       .  A
C427        C428   1.451       .  A
C427        C434   1.436       .  S
C428        C429   1.422       .  A
C429        H432   1.067       .  S
C429        C430   1.399       .  A
C430        C433   1.447       .  S
C433        N435   1.157       .  T
C434        N436   1.157       .  T
C437        C438   1.424       .  A
C437        C442   1.430       .  A
C438        H443   1.079       .  S
C438        C439   1.399       .  A
C439        C440   1.408       .  A
C439        C446   1.445       .  S
C440        C441   1.401       .  A
C441        H444   1.085       .  S
C441        C442   1.409       .  A
C442        C445   1.438       .  S
C445        N447   1.158       .  T
C446        N448   1.158   1_655  T
C449        C450   1.359       .  A
C449        C454   1.458       .  A
C450        H455   1.050       .  S
C450        C451   1.328       .  A
C451        C452   1.379       .  A
C451        C458   1.351       .  S
C452        C453   1.427       .  A
C453        H456   1.081       .  S
C453        C454   1.458       .  A
C454        C457   1.440       .  S
C457        N459   1.158       .  T
C458        N460   1.117       .  T
C461        C462   1.413       .  A
C461        C466   1.416       .  A
C462        H467   1.078       .  S
C462        C463   1.424       .  A
C463        C464   1.439       .  A
C463        C470   1.444       .  S
C464        C465   1.432       .  A
C465        H468   1.056       .  S
C465        C466   1.419       .  A
C466        C469   1.441       .  S
C469        N471   1.157       .  T
C470        N472   1.158       .  T
C473        C474   1.428       .  A
C473        C478   1.415       .  A
C474        H479   1.070       .  S
C474        C475   1.432       .  A
C475        C476   1.425       .  A
C475        C482   1.437       .  S
C476        C477   1.426       .  A
C477        H480   1.083       .  S
C477        C478   1.425       .  A
C478        C481   1.445       .  S
C481        N483   1.157       .  T
C482        N484   1.157       .  T
C485        C486   1.421       .  A
C485        C490   1.426       .  A
C486        H491   1.080       .  S
C486        C487   1.406       .  A
C487        C488   1.408       .  A
C487        C494   1.444       .  S
C488        C489   1.400       .  A
C489        H492   1.083       .  S
C489        C490   1.400       .  A
C490        C493   1.440       .  S
C493        N495   1.157       .  T
C494        N496   1.157       .  T
C497        C498   1.412       .  A
C497        C502   1.435       .  A
C498        H503   1.075       .  S
C498        C499   1.433       .  A
C499        C500   1.435       .  A
C499        C506   1.439       .  S
C500        C501   1.410       .  A
C501        H504   1.081       .  S
C501        C502   1.427       .  A
C502        C505   1.444       .  S
C505        N507   1.158       .  T
C506        N508   1.158       .  T
C509        C510   1.426       .  A
C509        C514   1.428       .  A
C510        H515   1.070       .  S
C510        C511   1.421       .  A
C511        C512   1.437       .  A
C511        C518   1.442       .  S
C512        C513   1.435       .  A
C513        H516   1.071       .  S
C513        C514   1.446       .  A
C514        C517   1.438       .  S
C517        N519   1.157       .  T
C518        N520   1.158       .  T
C521        C522   1.426       .  A
C521        C526   1.441       .  A
C522        H527   1.065       .  S
C522        C523   1.411       .  A
C523        C524   1.394       .  A
C523        C530   1.444       .  S
C524        C525   1.444       .  A
C525        H528   1.074       .  S
C525        C526   1.451       .  A
C526        C529   1.440       .  S
C529        N531   1.157       .  T
C530        N532   1.157       .  T
C533        C534   1.413       .  A
C533        C538   1.433       .  A
C534        H539   1.081       .  S
C534        C535   1.403       .  A
C535        C536   1.412       .  A
C535        C542   1.443       .  S
C536        C537   1.400       .  A
C537        H540   1.086       .  S
C537        C538   1.405       .  A
C538        C541   1.442       .  S
C541        N543   1.158       .  T
C542        N544   1.157       .  T
C545        C546   1.368       .  A
C545        C550   1.451       .  A
C546        H551   1.087       .  S
C546        C547   1.363       .  A
C547        C548   1.374       .  A
C547        C554   1.417       .  S
C548        C549   1.450       .  A
C549        H552   1.082       .  S
C549        C550   1.469       .  A
C550        C553   1.440       .  S
C553        N555   1.157       .  T
C554        N556   1.144       .  T
C557        C558   1.412       .  A
C557        C562   1.427       .  A
C558        H563   1.079       .  S
C558        C559   1.402       .  A
C559        C560   1.412       .  A
C559        C566   1.444       .  S
C560        C561   1.400       .  A
C561        H564   1.085       .  S
C561        C562   1.404       .  A
C562        C565   1.442       .  S
C565        N567   1.158       .  T
C566        N568   1.158       .  T
C569        C570   1.432       .  A
C569        C574   1.421       .  A
C570        H575   1.050       .  S
C570        C571   1.404       .  A
C571        C572   1.388       .  A
C571        C578   1.443       .  S
C572        C573   1.431       .  A
C573        H576   1.077       .  S
C573        C574   1.427       .  A
C574        C577   1.439       .  S
C577        N579   1.158       .  T
C578        N580   1.157       .  T
C581        C582   1.422       .  A
C581        C586   1.442       .  A
C582        H587   1.073       .  S
C582        C583   1.414       .  A
C583        C584   1.405       .  A
C583        C590   1.443       .  S
C584        C585   1.428       .  A
C585        H588   1.081       .  S
C585        C586   1.434       .  A
C586        C589   1.437       .  S
C589        N591   1.158       .  T
C590        N592   1.157       .  T
C593        C594   1.414       .  A
C593        C598   1.426       .  A
C594        H599   1.071       .  S
C594        C595   1.414       .  A
C595        C596   1.431       .  A
C595        C602   1.443       .  S
C596        C597   1.409       .  A
C597        H600   1.071       .  S
C597        C598   1.410       .  A
C598        C601   1.443       .  S
C601        N603   1.158       .  T
C602        N604   1.158       .  T
C605        C606   1.416       .  A
C605        C610   1.421       .  A
C606        H611   1.080       .  S
C606        C607   1.409       .  A
C607        C608   1.409       .  A
C607        C614   1.442       .  S
C608        C609   1.409       .  A
C609        H612   1.077       .  S
C609        C610   1.407       .  A
C610        C613   1.442       .  S
C613        N615   1.158       .  T
C614        N616   1.157       .  T
C617        C618   1.426       .  A
C617        C622   1.416       .  A
C618        H623   1.074       .  S
C618        C619   1.416       .  A
C619        C620   1.406       .  A
C619        C626   1.445       .  S
C620        C621   1.419       .  A
C621        H624   1.078       .  S
C621        C622   1.422       .  A
C622        C625   1.443       .  S
C625        N627   1.157       .  T
C626        N628   1.157       .  T
C629        C630   1.418       .  A
C629        C634   1.433       .  A
C630        H635   1.079       .  S
C630        C631   1.409       .  A
C631        C632   1.404       .  A
C631        C638   1.443       .  S
C632        C633   1.392       .  A
C633        H636   1.086       .  S
C633        C634   1.399       .  A
C634        C637   1.442       .  S
C637        N639   1.158       .  T
C638        N640   1.157       .  T
C641        C642   1.432       .  A
C641        C646   1.438       .  A
C642        H647   1.057       .  S
C642        C643   1.418       .  A
C643        C644   1.417       .  A
C643        C650   1.444       .  S
C644        C645   1.432       .  A
C645        H648   1.073       .  S
C645        C646   1.444       .  A
C646        C649   1.439       .  S
C649        N651   1.157       .  T
C650        N652   1.157       .  T
C653        C654   1.408       .  A
C653        C658   1.448       .  A
C654        H659   1.072       .  S
C654        C655   1.397       .  A
C655        C656   1.415       .  A
C655        C662   1.449       .  S
C656        C657   1.440       .  A
C657        H660   1.072       .  S
C657        C658   1.450       .  A
C658        C661   1.439       .  S
C661        N663   1.158       .  T
C662        N664   1.158       .  T
C665        C666   1.434       .  A
C665        C670   1.425       .  A
C666        H671   1.070       .  S
C666        C667   1.453       .  A
C667        C668   1.433       .  A
C667        C674   1.438       .  S
C668        C669   1.419       .  A
C669        H672   1.081       .  S
C669        C670   1.420       .  A
C670        C673   1.444       .  S
C673        N675   1.158       .  T
C674        N676   1.157       .  T
C677        C678   1.411       .  A
C677        C682   1.439       .  A
C678        H683   1.076       .  S
C678        C679   1.397       .  A
C679        C680   1.406       .  A
C679        C686   1.444       .  S
C680        C681   1.394       .  A
C681        H684   1.086       .  S
C681        C682   1.400       .  A
C682        C685   1.443       .  S
C685        N687   1.158       .  T
C686        N688   1.157       .  T
C689        C690   1.433       .  A
C689        C694   1.414       .  A
C690        H695   1.077       .  S
C690        C691   1.422       .  A
C691        C692   1.423       .  A
C691        C698   1.444       .  S
C692        C693   1.421       .  A
C693        H696   1.074       .  S
C693        C694   1.429       .  A
C694        C697   1.440       .  S
C697        N699   1.157       .  T
C698        N700   1.158       .  T
C701        C702   1.375       .  A
C701        C706   1.439       .  A
C702        H707   1.088       .  S
C702        C703   1.325       .  A
C703        C704   1.389       .  A
C703        C710   1.354       .  S
C704        C705   1.435       .  A
C705        H708   1.080       .  S
C705        C706   1.451       .  A
C706        C709   1.438       .  S
C709        N711   1.157       .  T
C710        N712   1.123       .  T
C713        C714   1.417       .  A
C713        C718   1.426       .  A
C714        H719   1.073       .  S
C714        C715   1.426       .  A
C715        C716   1.427       .  A
C715        C722   1.445       .  S
C716        C717   1.426       .  A
C717        H720   1.063       .  S
C717        C718   1.416       .  A
C718        C721   1.443       .  S
C721        N723   1.157       .  T
C722        N724   1.157       .  T
C725        C726   1.398       .  A
C725        C730   1.403       .  A
C726        H731   1.086       .  S
C726        C727   1.403       .  A
C727        C728   1.436       .  A
C727        C734   1.440       .  S
C728        C729   1.415       .  A
C729        H732   1.072       .  S
C729        C730   1.400       .  A
C730        C733   1.444       .  S
C733        N735   1.157       .  T
C734        N736   1.158       .  T
C737        C738   1.415       .  A
C737        C742   1.432       .  A
C738        H743   1.073       .  S
C738        C739   1.406       .  A
C739        C740   1.404       .  A
C739        C746   1.443       .  S
C740        C741   1.387       .  A
C741        H744   1.086       .  S
C741        C742   1.397       .  A
C742        C745   1.441       .  S
C745        N747   1.157       .  T
C746        N748   1.157       .  T
C749        C750   1.416       .  A
C749        C754   1.435       .  A
C750        H755   1.074       .  S
C750        C751   1.395       .  A
C751        C752   1.402       .  A
C751        C758   1.445       .  S
C752        C753   1.399       .  A
C753        H756   1.086       .  S
C753        C754   1.410       .  A
C754        C757   1.440       .  S
C757        N759   1.158       .  T
C758        N760   1.157       .  T
C761        C762   1.421       .  A
C761        C766   1.432       .  A
C762        H767   1.078       .  S
C762        C763   1.400       .  A
C763        C764   1.403       .  A
C763        C770   1.445       .  S
C764        C765   1.393       .  A
C765        H768   1.086       .  S
C765        C766   1.400       .  A
C766        C769   1.439       .  S
C769        N771   1.158       .  T
C770        N772   1.157       .  T
C773        C774   1.419       .  A
C773        C778   1.441       .  A
C774        H779   1.076       .  S
C774        C775   1.400       .  A
C775        C776   1.397       .  A
C775        C782   1.443       .  S
C776        C777   1.388       .  A
C777        H780   1.087       .  S
C777        C778   1.397       .  A
C778        C781   1.440       .  S
C781        N783   1.158       .  T
C782        N784   1.157       .  T
C785        C786   1.397       .  A
C785        C790   1.409       .  A
C786        H791   1.085       .  S
C786        C787   1.398       .  A
C787        C788   1.429       .  A
C787        C794   1.442       .  S
C788        C789   1.417       .  A
C789        H792   1.078       .  S
C789        C790   1.402       .  A
C790        C793   1.444       .  S
C793        N795   1.158   1_565  T
C794        N796   1.158       .  T
C797        C798   1.439       .  A
C797        C802   1.456       .  A
C798        H803   1.078       .  S
C798        C799   1.458       .  A
C799        C800   1.436       .  A
C799        C806   1.439       .  S
C800        C801   1.437       .  A
C801        H804   1.076       .  S
C801        C802   1.449       .  A
C802        C805   1.444       .  S
C805        N807   1.158       .  T
C806        N808   1.157       .  T
C809        C810   1.394       .  A
C809        C814   1.398       .  A
C810        H815   1.086       .  S
C810        C811   1.407       .  A
C811        C812   1.440       .  A
C811        C818   1.441       .  S
C812        C813   1.419       .  A
C813        H816   1.074       .  S
C813        C814   1.400       .  A
C814        C817   1.445       .  S
C817        N819   1.157       .  T
C818        N820   1.158       .  T
C821        C822   1.443       .  A
C821        C826   1.407       .  A
C822        H827   1.070       .  S
C822        C823   1.453       .  A
C823        C824   1.440       .  A
C823        C830   1.435       .  S
C824        C825   1.426       .  A
C825        H828   1.073       .  S
C825        C826   1.419       .  A
C826        C829   1.444       .  S
C829        N831   1.157       .  T
C830        N832   1.157       .  T
C833        C834   1.433       .  A
C833        C838   1.435       .  A
C834        H839   1.071       .  S
C834        C835   1.439       .  A
C835        C836   1.433       .  A
C835        C842   1.440       .  S
C836        C837   1.418       .  A
C837        H840   1.074       .  S
C837        C838   1.429       .  A
C838        C841   1.443       .  S
C841        N843   1.158       .  T
C842        N844   1.158       .  T
C845        C846   1.424       .  A
C845        C850   1.435       .  A
C846        H851   1.078       .  S
C846        C847   1.407       .  A
C847        C848   1.403       .  A
C847        C854   1.445       .  S
C848        C849   1.387       .  A
C849        H852   1.087       .  S
C849        C850   1.401       .  A
C850        C853   1.437       .  S
C853        N855   1.158       .  T
C854        N856   1.157   1_565  T
C857        C858   1.468       .  A
C857        C862   1.398       .  A
C858        H863   1.081       .  S
C858        C859   1.500       .  A
C859        C860   1.479       .  A
C859        C866   1.440       .  S
C860        C861   1.385       .  A
C861        H864   1.087       .  S
C861        C862   1.390       .  A
C862        C865   1.432       .  S
C865        N867   1.151       .  T
C866        N868   1.157       .  T
C869        C870   1.358       .  A
C869        C874   1.524       .  A
C870        H875   1.087       .  S
C870        C871   1.380       .  A
C871        C872   1.320       .  A
C871        C878   1.424       .  S
C872        C873   1.514       .  A
C873        H876   1.078       .  S
C873        C874   1.551       .  A
C874        C877   1.436       .  S
C877        N879   1.157       .  T
C878        N880   1.119       .  T
C881        C882   1.416       .  A
C881        C886   1.429       .  A
C882        H887   1.076       .  S
C882        C883   1.414       .  A
C883        C884   1.407       .  A
C883        C890   1.443       .  S
C884        C885   1.438       .  A
C885        H888   1.067       .  S
C885        C886   1.438       .  A
C886        C889   1.437       .  S
C889        N891   1.157       .  T
C890        N892   1.157       .  T
C893        C894   1.395       .  A
C893        C898   1.403       .  A
C894        H899   1.085       .  S
C894        C895   1.403       .  A
C895        C896   1.429       .  A
C895        C902   1.442       .  S
C896        C897   1.414       .  A
C897        H900   1.082       .  S
C897        C898   1.388       .  A
C898        C901   1.446       .  S
C901        N903   1.157   1_554  T
C902        N904   1.158       .  T
C905        C906   1.396       .  A
C905        C910   1.401       .  A
C906        H911   1.085       .  S
C906        C907   1.405       .  A
C907        C908   1.430       .  A
C907        C914   1.442       .  S
C908        C909   1.415       .  A
C909        H912   1.072       .  S
C909        C910   1.390       .  A
C910        C913   1.447       .  S
C913        N915   1.157       .  T
C914        N916   1.158       .  T
C917        C918   1.399       .  A
C917        C922   1.407       .  A
C918        H923   1.085       .  S
C918        C919   1.399       .  A
C919        C920   1.426       .  A
C919        C926   1.443       .  S
C920        C921   1.417       .  A
C921        H924   1.082       .  S
C921        C922   1.405       .  A
C922        C925   1.444       .  S
C925        N927   1.157       .  T
C926        N928   1.158       .  T
C929        C930   1.402       .  A
C929        C934   1.407       .  A
C930        H935   1.084       .  S
C930        C931   1.407       .  A
C931        C932   1.431       .  A
C931        C938   1.441       .  S
C932        C933   1.417       .  A
C933        H936   1.074       .  S
C933        C934   1.400       .  A
C934        C937   1.445       .  S
C937        N939   1.157       .  T
C938        N940   1.158       .  T
C941        C942   1.414       .  A
C941        C946   1.438       .  A
C942        H947   1.075       .  S
C942        C943   1.406       .  A
C943        C944   1.410       .  A
C943        C950   1.444       .  S
C944        C945   1.397       .  A
C945        H948   1.085       .  S
C945        C946   1.405       .  A
C946        C949   1.443       .  S
C949        N951   1.158       .  T
C950        N952   1.157       .  T
C953        C954   1.414       .  A
C953        C958   1.423       .  A
C954        H959   1.081       .  S
C954        C955   1.395       .  A
C955        C956   1.405       .  A
C955        C962   1.446       .  S
C956        C957   1.396       .  A
C957        H960   1.085       .  S
C957        C958   1.400       .  A
C958        C961   1.445       .  S
C961        N963   1.157       .  T
C962        N964   1.157   1_554  T
C965        C966   1.424       .  A
C965        C970   1.431       .  A
C966        H971   1.074       .  S
C966        C967   1.400       .  A
C967        C968   1.401       .  A
C967        C974   1.445       .  S
C968        C969   1.396       .  A
C969        H972   1.086       .  S
C969        C970   1.401       .  A
C970        C973   1.438       .  S
C973        N975   1.158       .  T
C974        N976   1.157       .  T
C977        C978   1.407       .  A
C977        C982   1.441       .  A
C978        H983   1.081       .  S
C978        C979   1.419       .  A
C979        C980   1.426       .  A
C979        C986   1.442       .  S
C980        C981   1.406       .  A
C981        H984   1.071       .  S
C981        C982   1.425       .  A
C982        C985   1.442       .  S
C985        N987   1.157       .  T
C986        N988   1.157       .  T
C989        C990   1.393       .  A
C989        C994   1.402       .  A
C990        H995   1.086       .  S
C990        C991   1.405       .  A
C991        C992   1.439       .  A
C991        C998   1.441       .  S
C992        C993   1.416       .  A
C993        H996   1.076       .  S
C993        C994   1.405       .  A
C994        C997   1.443       .  S
C997        N999   1.157       .  T
C998       N1000   1.158       .  T
C1001      C1002   1.429       .  A
C1001      C1006   1.408       .  A
C1002      H1007   1.067       .  S
C1002      C1003   1.414       .  A
C1003      C1004   1.410       .  A
C1003      C1010   1.445       .  S
C1004      C1005   1.429       .  A
C1005      H1008   1.068       .  S
C1005      C1006   1.416       .  A
C1006      C1009   1.442       .  S
C1009      N1011   1.157       .  T
C1010      N1012   1.157       .  T
C1013      C1014   1.418       .  A
C1013      C1018   1.420       .  A
C1014      H1019   1.070       .  S
C1014      C1015   1.406       .  A
C1015      C1016   1.413       .  A
C1015      C1022   1.442       .  S
C1016      C1017   1.423       .  A
C1017      H1020   1.077       .  S
C1017      C1018   1.414       .  A
C1018      C1021   1.441       .  S
C1021      N1023   1.157       .  T
C1022      N1024   1.158       .  T
C1025      C1026   1.419       .  A
C1025      C1030   1.425       .  A
C1026      H1031   1.080       .  S
C1026      C1027   1.402       .  A
C1027      C1028   1.411       .  A
C1027      C1034   1.443       .  S
C1028      C1029   1.400       .  A
C1029      H1032   1.085       .  S
C1029      C1030   1.396       .  A
C1030      C1033   1.441       .  S
C1033      N1035   1.157       .  T
C1034      N1036   1.158       .  T
C1037      C1038   1.426       .  A
C1037      C1042   1.412       .  A
C1038      H1043   1.084       .  S
C1038      C1039   1.433       .  A
C1039      C1040   1.449       .  A
C1039      C1046   1.440       .  S
C1040      C1041   1.414       .  A
C1041      H1044   1.073       .  S
C1041      C1042   1.409       .  A
C1042      C1045   1.442       .  S
C1045      N1047   1.158       .  T
C1046      N1048   1.158       .  T
C1049      C1050   1.454       .  A
C1049      C1054   1.379       .  A
C1050      H1055   1.078       .  S
C1050      C1051   1.473       .  A
C1051      C1052   1.452       .  A
C1051      C1058   1.439       .  S
C1052      C1053   1.367       .  A
C1053      H1056   1.088       .  S
C1053      C1054   1.360       .  A
C1054      C1057   1.407       .  S
C1057      N1059   1.139       .  T
C1058      N1060   1.157       .  T
C1061      C1062   1.412       .  A
C1061      C1066   1.404       .  A
C1062      H1067   1.081       .  S
C1062      C1063   1.417       .  A
C1063      C1064   1.413       .  A
C1063      C1070   1.441       .  S
C1064      C1065   1.421       .  A
C1065      H1068   1.077       .  S
C1065      C1066   1.408       .  A
C1066      C1069   1.445       .  S
C1069      N1071   1.157       .  T
C1070      N1072   1.157       .  T
C1073      C1074   1.398       .  A
C1073      C1078   1.404       .  A
C1074      H1079   1.085       .  S
C1074      C1075   1.400       .  A
C1075      C1076   1.435       .  A
C1075      C1082   1.443       .  S
C1076      C1077   1.420       .  A
C1077      H1080   1.072       .  S
C1077      C1078   1.403       .  A
C1078      C1081   1.444       .  S
C1081      N1083   1.157       .  T
C1082      N1084   1.158       .  T
C1085      C1086   1.399       .  A
C1085      C1090   1.410       .  A
C1086      H1091   1.084       .  S
C1086      C1087   1.401       .  A
C1087      C1088   1.428       .  A
C1087      C1094   1.442       .  S
C1088      C1089   1.417       .  A
C1089      H1092   1.079       .  S
C1089      C1090   1.409       .  A
C1090      C1093   1.444       .  S
C1093      N1095   1.157       .  T
C1094      N1096   1.158       .  T
C1097      C1098   1.430       .  A
C1097      C1102   1.420       .  A
C1098      H1103   1.061       .  S
C1098      C1099   1.405       .  A
C1099      C1100   1.395       .  A
C1099      C1106   1.444       .  S
C1100      C1101   1.431       .  A
C1101      H1104   1.075       .  S
C1101      C1102   1.427       .  A
C1102      C1105   1.439       .  S
C1105      N1107   1.158       .  T
C1106      N1108   1.158       .  T
C1109      C1110   1.401       .  A
C1109      C1114   1.411       .  A
C1110      H1115   1.085       .  S
C1110      C1111   1.400       .  A
C1111      C1112   1.427       .  A
C1111      C1118   1.440       .  S
C1112      C1113   1.420       .  A
C1113      H1116   1.078       .  S
C1113      C1114   1.403       .  A
C1114      C1117   1.443       .  S
C1117      N1119   1.158   1_554  T
C1118      N1120   1.158       .  T
C1121      C1122   1.417       .  A
C1121      C1126   1.426       .  A
C1122      H1127   1.072       .  S
C1122      C1123   1.420       .  A
C1123      C1124   1.429       .  A
C1123      C1130   1.442       .  S
C1124      C1125   1.408       .  A
C1125      H1128   1.073       .  S
C1125      C1126   1.408       .  A
C1126      C1129   1.444       .  S
C1129      N1131   1.158       .  T
C1130      N1132   1.158       .  T
C1133      C1134   1.432       .  A
C1133      C1138   1.421       .  A
C1134      H1139   1.063       .  S
C1134      C1135   1.407       .  A
C1135      C1136   1.395       .  A
C1135      C1142   1.446       .  S
C1136      C1137   1.420       .  A
C1137      H1140   1.081       .  S
C1137      C1138   1.426       .  A
C1138      C1141   1.443       .  S
C1141      N1143   1.157       .  T
C1142      N1144   1.157       .  T
C1145      C1146   1.420       .  A
C1145      C1150   1.435       .  A
C1146      H1151   1.077       .  S
C1146      C1147   1.400       .  A
C1147      C1148   1.400       .  A
C1147      C1154   1.444       .  S
C1148      C1149   1.387       .  A
C1149      H1152   1.086       .  S
C1149      C1150   1.399       .  A
C1150      C1153   1.439       .  S
C1153      N1155   1.158       .  T
C1154      N1156   1.157       .  T
C1157      C1158   1.417       .  A
C1157      C1162   1.425       .  A
C1158      H1163   1.080       .  S
C1158      C1159   1.410       .  A
C1159      C1160   1.406       .  A
C1159      C1166   1.442       .  S
C1160      C1161   1.405       .  A
C1161      H1164   1.080       .  S
C1161      C1162   1.412       .  A
C1162      C1165   1.442       .  S
C1165      N1167   1.158       .  T
C1166      N1168   1.157       .  T
C1169      C1170   1.449       .  A
C1169      C1174   1.376       .  A
C1170      H1175   1.082       .  S
C1170      C1171   1.468       .  A
C1171      C1172   1.450       .  A
C1171      C1178   1.440       .  S
C1172      C1173   1.367       .  A
C1173      H1176   1.087       .  S
C1173      C1174   1.362       .  A
C1174      C1177   1.412       .  S
C1177      N1179   1.142       .  T
C1178      N1180   1.157       .  T
C1181      C1182   1.430       .  A
C1181      C1186   1.403       .  A
C1182      H1187   1.080       .  S
C1182      C1183   1.436       .  A
C1183      C1184   1.440       .  A
C1183      C1190   1.436       .  S
C1184      C1185   1.422       .  A
C1185      H1188   1.071       .  S
C1185      C1186   1.412       .  A
C1186      C1189   1.443       .  S
C1189      N1191   1.157       .  T
C1190      N1192   1.157       .  T
C1193      C1194   1.399       .  A
C1193      C1198   1.410       .  A
C1194      H1199   1.085       .  S
C1194      C1195   1.404       .  A
C1195      C1196   1.434       .  A
C1195      C1202   1.442       .  S
C1196      C1197   1.413       .  A
C1197      H1200   1.079       .  S
C1197      C1198   1.402       .  A
C1198      C1201   1.443       .  S
C1201      N1203   1.157       .  T
C1202      N1204   1.158       .  T
