geometry optimzed in LAMMPS
_audit_creation_date              2020-11-30 
_audit_creation_method            'lammps2cif' 
_symmetry_space_group_name_H-M    'P1' 
_symmetry_Int_Tables_number       1 
_symmetry_cell_setting            triclinic 
loop_ 
_symmetry_equiv_pos_as_xyz 
  x,y,z 
_cell_length_a                    22.14782024 
_cell_length_b                    22.13552676073311 
_cell_length_c                    88.98500346214497 
_cell_angle_alpha                 90.1999565780125 
_cell_angle_beta                  89.77266911435332 
_cell_angle_gamma                 90.38872311462406 
loop_ 
_atom_site_label 
_atom_site_type_symbol 
_atom_site_fract_x 
_atom_site_fract_y 
_atom_site_fract_z 
_atom_site_charge 
C1          C  0.70824590  0.55107387  0.81894554     0.86400
C2          C  0.72003435  0.61948187  0.81857603    -0.53900
C3          C  0.68455768  0.65192105  0.82820866     0.09300
C4          C  0.63977340  0.61217318  0.83719272     0.20200
C5          C  0.71603510  0.53346834  0.83544499    -0.54600
C6          C  0.68002783  0.56529502  0.84506557     0.09400
C7          C  0.64045754  0.54372056  0.81577316    -0.54100
C8          C  0.60418002  0.57611049  0.82520061     0.10000
H9          H  0.75316532  0.64068713  0.81123042     0.14500
H10         H  0.61025218  0.63777435  0.84498310     0.00200
H11         H  0.74797333  0.49976016  0.83921606     0.14800
H12         H  0.62278474  0.51590392  0.80669440     0.14600
C13         C  0.23695660  0.55203803  0.81813619     0.86400
C14         C  0.22878828  0.53458221  0.83464921    -0.53900
C15         C  0.26624201  0.56521956  0.84410915     0.09300
C16         C  0.30791172  0.61126068  0.83622222     0.20200
C17         C  0.22775683  0.62067817  0.81769406    -0.54600
C18         C  0.26497758  0.65174057  0.82718159     0.09400
C19         C  0.30441717  0.54334141  0.81471896    -0.54100
C20         C  0.34191334  0.57369609  0.82430194     0.10000
H21         H  0.19627073  0.50111458  0.83853513     0.14500
H22         H  0.33772668  0.63674835  0.84404637     0.00200
H23         H  0.19558642  0.64296154  0.81042484     0.14800
H24         H  0.32075211  0.51644966  0.80534617     0.14600
C25         C  0.69959235  0.01649637  0.81928641     0.86400
C26         C  0.63163074  0.02349053  0.81650400    -0.53900
C27         C  0.59600400  0.98941062  0.82574767     0.09300
C28         C  0.63227110  0.95127273  0.83704782     0.20200
C29         C  0.70821499  0.03149331  0.83600427    -0.54600
C30         C  0.67279505  0.99743370  0.84544980     0.09400
C31         C  0.71169064  0.94859844  0.81814548    -0.54100
C32         C  0.67602372  0.91402301  0.82721010     0.10000
H33         H  0.61328756  0.05290083  0.80793497     0.14500
H34         H  0.60389195  0.92300616  0.84458299     0.00200
H35         H  0.73980202  0.06564419  0.84000245     0.14800
H36         H  0.74628825  0.92938418  0.81093624     0.14600
C37         C  0.22949188  0.01195013  0.81985721     0.86400
C38         C  0.22442297  0.94304815  0.81796874    -0.53900
C39         C  0.26162949  0.91183803  0.82724721     0.09300
C40         C  0.30016809  0.95180434  0.83757829     0.20200
C41         C  0.21752525  0.02368760  0.83667983    -0.54600
C42         C  0.25487363  0.99197974  0.84593992     0.09400
C43         C  0.29709617  0.02608651  0.81757710    -0.54100
C44         C  0.33422550  0.99479240  0.82694624     0.10000
H45         H  0.19446420  0.92073426  0.81003915     0.14500
H46         H  0.32998409  0.92575662  0.84516351     0.00200
H47         H  0.18404376  0.05528461  0.84084329     0.14800
H48         H  0.31394864  0.05619069  0.80889182     0.14600
C49         C  0.71388017  0.55319640  0.93586586     0.86400
C50         C  0.64477079  0.55088546  0.93773935    -0.53900
C51         C  0.61447093  0.58948305  0.92844953     0.09300
C52         C  0.65683675  0.62412247  0.91763207     0.20200
C53         C  0.72480310  0.53834010  0.91925458    -0.54600
C54         C  0.69469323  0.57518968  0.90965918     0.09400
C55         C  0.73055679  0.62044041  0.93769971    -0.54100
C56         C  0.70078112  0.65742690  0.92805759     0.10000
H57         H  0.62214683  0.52039304  0.94546400     0.14500
H58         H  0.63386488  0.65532336  0.90981973     0.00200
H59         H  0.75212520  0.50064870  0.91544232     0.14800
H60         H  0.76162045  0.63741441  0.94615770     0.14600
C61         C  0.25248200  0.55272527  0.93470521     0.86400
C62         C  0.23916075  0.53492709  0.91845401    -0.53900
C63         C  0.26781720  0.57053130  0.90820933     0.09300
C64         C  0.30749613  0.62097122  0.91514048     0.20200
C65         C  0.32174245  0.55163109  0.93587017    -0.54600
C66         C  0.35149321  0.58804458  0.92568988     0.09400
C67         C  0.23607331  0.61981312  0.93586283    -0.54100
C68         C  0.26471280  0.65596039  0.92561516     0.10000
H69         H  0.21011510  0.49728550  0.91530058     0.14500
H70         H  0.32946975  0.65106988  0.90696926     0.00200
H71         H  0.34496186  0.52439273  0.94411865     0.14800
H72         H  0.20507282  0.63726578  0.94427616     0.14600
C73         C  0.71181231  0.02147794  0.93689280     0.86400
C74         C  0.72401894  0.95384990  0.93900867    -0.53900
C75         C  0.69133743  0.91754369  0.92965185     0.09300
C76         C  0.64975801  0.95198093  0.91896813     0.20200
C77         C  0.72382040  0.03374110  0.92006035    -0.54600
C78         C  0.69109464  0.99694703  0.91061663     0.09400
C79         C  0.64332256  0.02755761  0.93876242    -0.54100
C80         C  0.61084487  0.99195255  0.92921752     0.10000
H81         H  0.75542721  0.93618831  0.94722310     0.14500
H82         H  0.62315295  0.92191622  0.91142991     0.00200
H83         H  0.75319503  0.06978668  0.91607577     0.14800
H84         H  0.62207936  0.05709749  0.94696034     0.14600
C85         C  0.24895008  0.02153890  0.93672754     0.86400
C86         C  0.31760298  0.02546483  0.93916139    -0.53900
C87         C  0.35022211  0.98905507  0.92979325     0.09300
C88         C  0.31114355  0.95273261  0.91870313     0.20200
C89         C  0.23977764  0.03599108  0.92003924    -0.54600
C90         C  0.27250264  0.99997665  0.91058919     0.09400
C91         C  0.23337532  0.95405551  0.93807232    -0.54100
C92         C  0.26634169  0.91772673  0.92874414     0.10000
H93         H  0.33877068  0.05449226  0.94750811     0.14500
H94         H  0.33760137  0.92385052  0.91089478     0.00200
H95         H  0.20934314  0.07062854  0.91604079     0.14800
H96         H  0.19861830  0.93686545  0.94558491     0.14600
O97         O  0.27922133  0.05398106  0.44746478    -0.57900
C98         C  0.42168853  0.98928676  0.46667570     0.74700
O99         O  0.27534072  0.99604474  0.49633218    -0.59100
C100        C  0.22245719  0.04870252  0.44670881     0.74700
C101        C  0.27791723  0.85350826  0.46739447     0.77000
Cd102      Cd  0.29260008  0.98432169  0.46874887     1.37500
O103        O  0.39011815  0.98532440  0.45489824    -0.57900
O104        O  0.31002989  0.88333016  0.45827784    -0.56800
C105        C  0.27643044  0.05330504  0.49624460     0.77000
O106        O  0.24727841  0.88403605  0.47675750    -0.59100
O107        O  0.39365775  0.99342559  0.47901733    -0.57600
O108        O  0.19805188  0.01145483  0.45571795    -0.57600
O109        O  0.28077571  0.07821598  0.48352932    -0.56700
O110        O  0.28419839  0.09416065  0.55924406    -0.57900
C111        C  0.42630781  0.15558078  0.53723763     0.74700
O112        O  0.27339915  0.14634945  0.51006243    -0.59100
C113        C  0.22726083  0.09748753  0.55983450     0.74700
C114        C  0.27932309  0.28995330  0.53899753     0.77000
Cd115      Cd  0.29677158  0.16042764  0.53715910     1.37500
O116        O  0.39659735  0.15007663  0.54933776    -0.57900
O117        O  0.31184655  0.26107106  0.54808232    -0.56800
C118        C  0.27721237  0.08926983  0.51018063     0.77000
O119        O  0.24995373  0.25880428  0.52951368    -0.59100
O120        O  0.39637277  0.16328723  0.52536157    -0.57600
O121        O  0.20265745  0.13257256  0.55046910    -0.57600
O122        O  0.28569608  0.06499330  0.52282188    -0.56700
O123        O  0.40140944  0.64868320  0.45600005    -0.57900
C124        C  0.23326178  0.59361787  0.44664937     0.74700
O125        O  0.27731027  0.64203992  0.49549339    -0.59100
C126        C  0.43090781  0.65228077  0.46812380     0.74700
C127        C  0.28046282  0.78693008  0.46745774     0.77000
Cd128      Cd  0.30245904  0.65753531  0.46871706     1.37500
O129        O  0.29026275  0.59192039  0.44643255    -0.57900
O130        O  0.31234484  0.75908643  0.45791119    -0.56800
C131        C  0.28530321  0.58542980  0.49527241     0.77000
O132        O  0.25475934  0.75480870  0.47738013    -0.59100
O133        O  0.20923808  0.62730750  0.45651381    -0.57600
O134        O  0.40112569  0.65888634  0.48012935    -0.57600
O135        O  0.29670515  0.56169079  0.48265719    -0.56700
O136        O  0.29115832  0.55704239  0.55730688    -0.57900
C137        C  0.43271015  0.48759286  0.53840293     0.74700
O138        O  0.25158064  0.38765610  0.52949831    -0.59100
C139        C  0.23411426  0.55337593  0.55774340     0.74700
C140        C  0.28590765  0.54980347  0.50910356     0.77000
Cd141      Cd  0.30341217  0.48489711  0.53660230     1.37500
O142        O  0.40113593  0.48287536  0.55022988    -0.57900
O143        O  0.27924878  0.57464862  0.52179845    -0.56800
C144        C  0.28058174  0.35637582  0.53889811     0.77000
O145        O  0.29700268  0.49370545  0.50900977    -0.59100
O146        O  0.40467361  0.49452347  0.52621100    -0.57600
O147        O  0.20935545  0.51678187  0.54864815    -0.57600
O148        O  0.31500221  0.38495766  0.54771660    -0.56700
O149        O  0.62911525  0.04378723  0.44670787    -0.57900
C150        C  0.48754096  0.98682515  0.46639980     0.74700
O151        O  0.66150542  0.87861414  0.47751655    -0.59100
C152        C  0.68624174  0.04160382  0.44664631     0.74700
C153        C  0.63440931  0.03832469  0.49513585     0.77000
Cd154      Cd  0.61628343  0.97346582  0.46780991     1.37500
O155        O  0.51767215  0.97853504  0.45445313    -0.57900
O156        O  0.65941293  0.05603865  0.48312136    -0.56800
C157        C  0.64028595  0.84543430  0.46720070     0.77000
O158        O  0.60617960  0.98851782  0.49469301    -0.59100
O159        O  0.51688810  0.99075658  0.47847077    -0.57600
O160        O  0.71043662  0.00601324  0.45593925    -0.57600
O161        O  0.61215282  0.87175284  0.45681705    -0.56700
O162        O  0.63544516  0.07571502  0.55561010    -0.57900
C163        C  0.49220860  0.15299705  0.53678783     0.74700
O164        O  0.66431070  0.24597779  0.52597275    -0.59100
C165        C  0.69243357  0.07883383  0.55562764     0.74700
C166        C  0.63398200  0.07512676  0.50873236     0.77000
Cd167      Cd  0.62115364  0.14767293  0.53504152     1.37500
O168        O  0.52324194  0.14166547  0.54835547    -0.57900
O169        O  0.60393267  0.05826281  0.52006103    -0.56800
C170        C  0.64309339  0.27617123  0.53688348     0.77000
O171        O  0.66021073  0.12611118  0.50951018    -0.59100
O172        O  0.52069881  0.16179623  0.52463510    -0.57600
O173        O  0.71647682  0.11578203  0.54653235    -0.57600
O174        O  0.61695370  0.24653094  0.54716578    -0.56700
O175        O  0.63908381  0.57906824  0.45000155    -0.57900
C176        C  0.49649518  0.64981491  0.46852122     0.74700
O177        O  0.64702956  0.63887169  0.49760207    -0.59100
C178        C  0.69560417  0.58686805  0.44912571     0.74700
C179        C  0.64311762  0.77938168  0.46774151     0.77000
Cd180      Cd  0.62493741  0.65125679  0.47041778     1.37500
O181        O  0.52818326  0.64360266  0.45678112    -0.57900
O182        O  0.62095907  0.74770652  0.45727582    -0.56800
C183        C  0.64608946  0.58163740  0.49719152     0.77000
O184        O  0.66309949  0.75135320  0.47905122    -0.59100
O185        O  0.52412590  0.65451951  0.48084942    -0.57600
O186        O  0.71878247  0.62662904  0.45768060    -0.57600
O187        O  0.63941563  0.55732311  0.48444301    -0.56700
O188        O  0.64206165  0.53469434  0.55988245    -0.57900
C189        C  0.49853986  0.48346273  0.53848058     0.74700
O190        O  0.64812785  0.48767409  0.51027015    -0.59100
C191        C  0.69909589  0.53312869  0.55981978     0.74700
C192        C  0.64393092  0.34256107  0.53732491     0.77000
Cd193      Cd  0.62789324  0.47253350  0.53730284     1.37500
O194        O  0.52836637  0.47483817  0.55036436    -0.57900
O195        O  0.61413263  0.37051525  0.54723548    -0.56800
C196        C  0.64729652  0.54487735  0.51086302     0.77000
O197        O  0.67067522  0.37465814  0.52756564    -0.59100
O198        O  0.52820865  0.48694802  0.52637800    -0.57600
O199        O  0.72353168  0.50020430  0.54985804    -0.57600
O200        O  0.64273277  0.56858324  0.52375924    -0.56700
O201        O  0.23188895  0.11909768  0.69826801    -0.57900
C202        C  0.30045153  0.26088487  0.71881907     0.74700
O203        O  0.28846311  0.10599686  0.74647586    -0.59100
C204        C  0.23327405  0.06199122  0.69815254     0.74700
C205        C  0.43004256  0.11215497  0.71618566     0.77000
Cd206      Cd  0.30098817  0.13149616  0.71950683     1.37500
O207        O  0.28925042  0.23035872  0.70710953    -0.57900
O208        O  0.39938709  0.13977826  0.70646844    -0.56800
C209        C  0.23135585  0.10901467  0.74643851     0.77000
O210        O  0.40064802  0.08790380  0.72684193    -0.59100
O211        O  0.30974578  0.23178975  0.73076803    -0.57600
O212        O  0.26840519  0.03712844  0.70745910    -0.57600
O213        O  0.20668516  0.11970807  0.73396528    -0.56700
O214        O  0.18924957  0.10465946  0.80990033    -0.57900
C215        C  0.13495624  0.24792085  0.78831735     0.74700
O216        O  0.13835007  0.10320390  0.76011028    -0.59100
C217        C  0.19020977  0.04757524  0.80936283     0.74700
C218        C  0.99529558  0.10016229  0.78907205     0.77000
Cd219      Cd  0.12567223  0.11836424  0.78754298     1.37500
O220        O  0.13949067  0.21776279  0.80031831    -0.57900
O221        O  0.02430065  0.13131446  0.79856903    -0.56800
C222        C  0.19551862  0.10493242  0.76030274     0.77000
O223        O  0.02658919  0.07199082  0.77941513    -0.59100
O224        O  0.12698559  0.21837660  0.77633488    -0.57600
O225        O  0.15848731  0.02271335  0.79920629    -0.57600
O226        O  0.22020764  0.10715453  0.77306771    -0.56700
O227        O  0.64091291  0.23538572  0.70515565    -0.57900
C228        C  0.69040868  0.06849264  0.69462255     0.74700
O229        O  0.63703809  0.11352961  0.74484873    -0.59100
C230        C  0.63456890  0.26594940  0.71707760     0.74700
C231        C  0.49659661  0.11344583  0.71575145     0.77000
Cd232      Cd  0.62641784  0.13526066  0.71755407     1.37500
O233        O  0.69177540  0.12552572  0.69529676    -0.57900
O234        O  0.52485929  0.14499372  0.70619523    -0.56800
C235        C  0.69413323  0.11132085  0.74479272     0.77000
O236        O  0.52845635  0.08737157  0.72551949    -0.59100
O237        O  0.65744928  0.04183830  0.70425485    -0.57600
O238        O  0.62517953  0.23651162  0.72900143    -0.57600
O239        O  0.71971423  0.11616310  0.73212843    -0.56700
O240        O  0.73263204  0.11048579  0.80810145    -0.57900
C241        C  0.79981097  0.25218510  0.78714481     0.74700
O242        O  0.89765581  0.07291252  0.77907926    -0.59100
C243        C  0.73695040  0.05359270  0.80854851     0.74700
C244        C  0.72919508  0.10838811  0.75879632     0.77000
Cd245      Cd  0.79972210  0.12306997  0.78609213     1.37500
O246        O  0.78570107  0.22191038  0.79868828    -0.57900
O247        O  0.70466980  0.11717421  0.77145289    -0.56800
C248        C  0.92871771  0.10165567  0.78871027     0.77000
O249        O  0.78589005  0.10130136  0.75877907    -0.59100
O250        O  0.81310044  0.22289886  0.77540210    -0.57600
O251        O  0.77207399  0.02946182  0.79901331    -0.57600
O252        O  0.89986015  0.13589558  0.79752398    -0.56700
O253        O  0.71027579  0.47984893  0.69775562    -0.57900
C254        C  0.63717740  0.33219966  0.71725030     0.74700
O255        O  0.65488203  0.49198516  0.74524498    -0.59100
C256        C  0.70840457  0.53692618  0.69799039     0.74700
C257        C  0.50879711  0.48007406  0.71716026     0.77000
Cd258      Cd  0.63874759  0.46248914  0.71861623     1.37500
O259        O  0.64244626  0.36321401  0.70536818    -0.57900
O260        O  0.53850846  0.45417647  0.70685844    -0.56800
C261        C  0.70913215  0.47402271  0.74543198     0.77000
O262        O  0.53933321  0.50357067  0.72771663    -0.59100
O263        O  0.63350546  0.36113085  0.72947642    -0.57600
O264        O  0.67204275  0.56029444  0.70734354    -0.57600
O265        O  0.73081748  0.45461584  0.73320753    -0.56700
O266        O  0.74053798  0.45847826  0.80724278    -0.57900
C267        C  0.80170913  0.31802928  0.78717070     0.74700
O268        O  0.79972749  0.45718134  0.75896587    -0.59100
C269        C  0.74650475  0.51525649  0.80825737     0.74700
C270        C  0.93928980  0.46630071  0.78843009     0.77000
Cd271      Cd  0.81085986  0.44706687  0.78625445     1.37500
O272        O  0.79364282  0.34897270  0.79896878    -0.57900
O273        O  0.90923882  0.43912080  0.79845740    -0.56800
C274        C  0.74448503  0.47119666  0.75924768     0.77000
O275        O  0.90953065  0.49043464  0.77795448    -0.59100
O276        O  0.81250446  0.34663919  0.77521400    -0.57600
O277        O  0.78469529  0.54008167  0.79954338    -0.57600
O278        O  0.72060509  0.47844681  0.77203159    -0.56700
O279        O  0.29469887  0.35710701  0.70686060    -0.57900
C280        C  0.25041655  0.52587421  0.69684033     0.74700
O281        O  0.29744842  0.47008125  0.74643753    -0.59100
C282        C  0.30374992  0.32676000  0.71865505     0.74700
C283        C  0.44216763  0.47792398  0.71727857     0.77000
Cd284      Cd  0.31240510  0.45606434  0.71917037     1.37500
O285        O  0.25076968  0.46874392  0.69641884    -0.57900
O286        O  0.41380386  0.44504900  0.70801733    -0.56800
C287        C  0.24033604  0.47041991  0.74598461     0.77000
O288        O  0.41043968  0.50495686  0.72705193    -0.59100
O289        O  0.28108611  0.55076867  0.70719116    -0.57600
O290        O  0.31685023  0.35596902  0.73041333    -0.57600
O291        O  0.21652285  0.47011026  0.73310639    -0.56700
O292        O  0.20237989  0.45882506  0.80735392    -0.57900
C293        C  0.13701327  0.31395026  0.78805105     0.74700
O294        O  0.03694839  0.48913092  0.77816717    -0.59100
C295        C  0.19774313  0.51568301  0.80784153     0.74700
C296        C  0.20373783  0.46637246  0.75971034     0.77000
Cd297      Cd  0.13372239  0.44368870  0.78648969     1.37500
O298        O  0.14319590  0.34549607  0.79983029    -0.57900
O299        O  0.22797032  0.45642668  0.77227625    -0.56800
C300        C  0.00546916  0.46475643  0.78841413     0.77000
O301        O  0.14661113  0.46856032  0.75948445    -0.59100
O302        O  0.13110294  0.34216388  0.77583404    -0.57600
O303        O  0.16006543  0.53951125  0.79902816    -0.57600
O304        O  0.03359556  0.43476151  0.79816901    -0.56700
C305        C  0.74741737  0.57403127  0.68752381     0.86400
C306        C  0.73952203  0.64285079  0.68875726    -0.53900
C307        C  0.77549504  0.67508598  0.67908249     0.09300
C308        C  0.81489415  0.63511287  0.66884121     0.20200
C309        C  0.73505377  0.55944540  0.67097034    -0.54600
C310        C  0.77010885  0.59150411  0.66121312     0.09400
C311        C  0.81566010  0.56387080  0.68959676    -0.54100
C312        C  0.85104562  0.59605290  0.67979986     0.10000
H313        H  0.70720395  0.66402282  0.69627025     0.14500
H314        H  0.84362974  0.66082582  0.66080372     0.00200
H315        H  0.70080382  0.52744662  0.66726391     0.14800
H316        H  0.83421461  0.53351017  0.69791852     0.14600
C317        C  0.21400500  0.56182267  0.68579965     0.86400
C318        C  0.23142961  0.55090493  0.66926126    -0.53900
C319        C  0.19787982  0.58358726  0.65940698     0.09300
C320        C  0.14989491  0.62363911  0.66691279     0.20200
C321        C  0.21853506  0.63054192  0.68809388    -0.54600
C322        C  0.18558080  0.66320816  0.67809203     0.09400
C323        C  0.14589837  0.54833192  0.68673311    -0.54100
C324        C  0.11209438  0.58084010  0.67685892     0.10000
H325        H  0.26721096  0.52071047  0.66569418     0.14500
H326        H  0.12263619  0.64975056  0.65877162     0.00200
H327        H  0.24346591  0.65129395  0.69724126     0.14800
H328        H  0.12592763  0.51790647  0.69494328     0.14600
C329        C  0.72727178  0.03495914  0.68308255     0.86400
C330        C  0.79534187  0.04819825  0.68431847    -0.53900
C331        C  0.83036284  0.01834696  0.67397834     0.09300
C332        C  0.79285784  0.97824739  0.66326492     0.20200
C333        C  0.71094007  0.05046014  0.66688716    -0.54600
C334        C  0.74528035  0.02107467  0.65651287     0.09400
C335        C  0.72212382  0.96591512  0.68398361    -0.54100
C336        C  0.75685449  0.93567825  0.67370783     0.10000
H337        H  0.81419279  0.07741855  0.69295717     0.14500
H338        H  0.82059654  0.95366444  0.65494528     0.00200
H339        H  0.67551179  0.08180268  0.66386661     0.14800
H340        H  0.69485935  0.94276119  0.69236911     0.14600
C341        C  0.19488925  0.02605944  0.68745506     0.86400
C342        C  0.20003088  0.95743319  0.68924523    -0.53900
C343        C  0.16564112  0.92464553  0.67939273     0.09300
C344        C  0.12898121  0.96449771  0.66862583     0.20200
C345        C  0.21018506  0.03863249  0.67096690    -0.54600
C346        C  0.17570642  0.00649337  0.66110731     0.09400
C347        C  0.12707593  0.03893867  0.68886731    -0.54100
C348        C  0.09209085  0.00627854  0.67908971     0.10000
H349        H  0.22865062  0.93642851  0.69758883     0.14500
H350        H  0.10180274  0.93891039  0.66029198     0.00200
H351        H  0.24453423  0.07077708  0.66738469     0.14800
H352        H  0.10879339  0.07211071  0.69662624     0.14600
C353        C  0.19830805  0.58913234  0.56894924     0.86400
C354        C  0.21537605  0.57277114  0.58497310    -0.53900
C355        C  0.18409974  0.60358839  0.59558376     0.09300
C356        C  0.13821064  0.64911564  0.58912977     0.20200
C357        C  0.12971334  0.57932799  0.56812311    -0.54600
C358        C  0.09779927  0.61094851  0.57867743     0.09400
C359        C  0.20688423  0.65812342  0.56789873    -0.54100
C360        C  0.17495681  0.69042397  0.57844898     0.10000
H361        H  0.24921540  0.53931807  0.58774398     0.14500
H362        H  0.11167666  0.67406735  0.59753576     0.00200
H363        H  0.10811133  0.55047076  0.55981112     0.14800
H364        H  0.23487732  0.67931940  0.55934376     0.14600
C365        C  0.19097095  0.05922250  0.57062048     0.86400
C366        C  0.12244698  0.06859411  0.56962194    -0.53900
C367        C  0.08967332  0.03253058  0.57906402     0.09300
C368        C  0.12850366  0.99052551  0.58862201     0.20200
C369        C  0.20636552  0.06878840  0.58731085    -0.54600
C370        C  0.17373499  0.03244394  0.59675283     0.09400
C371        C  0.19968020  0.99104708  0.56781774    -0.54100
C372        C  0.16608477  0.95469359  0.57708583     0.10000
H373        H  0.10134009  0.09946395  0.56180398     0.14500
H374        H  0.10136003  0.96151873  0.59624616     0.00200
H375        H  0.24055129  0.10041046  0.59126429     0.14800
H376        H  0.23059051  0.97348035  0.55940506     0.14600
C377        C  0.73517985  0.57127674  0.57059117     0.86400
C378        C  0.80398478  0.56730965  0.56853929    -0.53900
C379        C  0.83587585  0.60471740  0.57788717     0.09300
C380        C  0.79584971  0.64062536  0.58882599     0.20200
C381        C  0.72405808  0.55667600  0.58721079    -0.54600
C382        C  0.75636220  0.59255940  0.59677085     0.09400
C383        C  0.72096332  0.63884651  0.56900282    -0.54100
C384        C  0.75265523  0.67566685  0.57853961     0.10000
H385        H  0.82552913  0.53715381  0.56054427     0.14500
H386        H  0.82231918  0.66976471  0.59655818     0.00200
H387        H  0.69436547  0.52064531  0.59106235     0.14800
H388        H  0.68958840  0.65611384  0.56073493     0.14600
C389        C  0.72900661  0.04106203  0.56614043     0.86400
C390        C  0.72027662  0.97237885  0.56402961    -0.53900
C391        C  0.75344866  0.93820752  0.57377822     0.09300
C392        C  0.79077256  0.97661590  0.58490508     0.20200
C393        C  0.71311565  0.05328502  0.58261625    -0.54600
C394        C  0.74520318  0.01947206  0.59242531     0.09400
C395        C  0.79753124  0.05142781  0.56503814    -0.54100
C396        C  0.82992356  0.01711848  0.57478690     0.10000
H397        H  0.68947401  0.95302489  0.55584608     0.14500
H398        H  0.81754121  0.94990006  0.59301479     0.00200
H399        H  0.67965460  0.08595667  0.58623121     0.14800
H400        H  0.81864277  0.08335876  0.55737548     0.14600
O401        O  0.91403235  0.10724042  0.95757019    -0.57900
C402        C  0.74729871  0.06012461  0.94769389     0.74700
O403        O  0.78879384  0.10678454  0.99727587    -0.59100
C404        C  0.94521708  0.12009422  0.96902020     0.74700
C405        C  0.79660430  0.25273210  0.96772331     0.77000
Cd406      Cd  0.81586777  0.12337173  0.97022848     1.37500
O407        O  0.80433395  0.05942279  0.94775267    -0.57900
O408        O  0.82276516  0.22200435  0.95768165    -0.56800
C409        C  0.79717765  0.05022241  0.99693983     0.77000
O410        O  0.77429264  0.22348503  0.97865503    -0.59100
O411        O  0.72199515  0.09265710  0.95762670    -0.57600
O412        O  0.91677232  0.13423770  0.98083704    -0.57600
O413        O  0.80988789  0.02757026  0.98428211    -0.56700
O414        O  0.91617488  0.95448113  0.04975815    -0.57900
C415        C  0.74981428  0.00267051  0.06069547     0.74700
O416        O  0.80203531  0.95609646  0.01000498    -0.59100
C417        C  0.94663973  0.94532222  0.03792787     0.74700
C418        C  0.79334793  0.81152099  0.03910036     0.77000
Cd419      Cd  0.81654756  0.94086214  0.03739341     1.37500
O420        O  0.80664731  0.00702541  0.05963222    -0.57900
O421        O  0.82579183  0.83987751  0.04843227    -0.56800
C422        C  0.79696307  0.01296510  0.01061778     0.77000
O423        O  0.76685514  0.84318130  0.02932815    -0.59100
O424        O  0.72399365  0.96737861  0.05142563    -0.57600
O425        O  0.91727826  0.93505668  0.02605243    -0.57600
O426        O  0.79597773  0.03626124  0.02360013    -0.56700
O427        O  0.79895652  0.54149937  0.05724869    -0.57900
C428        C  0.94162817  0.60855351  0.03854041     0.74700
O429        O  0.80927054  0.60850070  0.00923366    -0.59100
C430        C  0.74223745  0.54682425  0.05828025     0.74700
C431        C  0.79175004  0.74495698  0.03907895     0.77000
Cd432      Cd  0.81200793  0.61570394  0.03683522     1.37500
O433        O  0.90985907  0.60641377  0.05037910    -0.57900
O434        O  0.82152669  0.71562468  0.04864417    -0.56800
C435        C  0.79607148  0.55285883  0.00878305     0.77000
O436        O  0.76525197  0.71414978  0.02902606    -0.59100
O437        O  0.91361317  0.61192607  0.02626182    -0.57600
O438        O  0.71797023  0.58505317  0.04964182    -0.57600
O439        O  0.78446837  0.52754143  0.02117939    -0.56700
O440        O  0.80582850  0.51293612  0.94593927    -0.57900
C441        C  0.95024627  0.45165630  0.96694469     0.74700
O442        O  0.78663236  0.46256045  0.99423978    -0.59100
C443        C  0.74879435  0.51354324  0.94634799     0.74700
C444        C  0.79733831  0.31919076  0.96714617     0.77000
Cd445      Cd  0.81959861  0.44842227  0.96793627     1.37500
O446        O  0.91976367  0.46097723  0.95519081    -0.57900
O447        O  0.82364188  0.34686766  0.95654491    -0.56800
C448        C  0.79903599  0.51841027  0.99473942     0.77000
O449        O  0.77615888  0.35153134  0.97763261    -0.59100
O450        O  0.92072284  0.44116945  0.97883485    -0.57600
O451        O  0.72367361  0.48067453  0.95621072    -0.57600
O452        O  0.81816532  0.54231717  0.98274257    -0.56700
O453        O  0.15759125  0.01557563  0.05809944    -0.57900
C454        C  0.01271309  0.94583153  0.03782152     0.74700
O455        O  0.16799131  0.95873253  0.00954527    -0.59100
C456        C  0.21451969  0.01161552  0.05835638     0.74700
C457        C  0.16242708  0.81503043  0.03932864     0.77000
Cd458      Cd  0.14268439  0.94460966  0.03679589     1.37500
O459        O  0.04340471  0.95446813  0.04960473    -0.57900
O460        O  0.13787239  0.84576487  0.04964148    -0.56800
C461        C  0.15986664  0.01537286  0.00971880     0.77000
O462        O  0.18343182  0.84444492  0.02826634    -0.59100
O463        O  0.04182446  0.93702640  0.02579624    -0.57600
O464        O  0.23794740  0.97475880  0.04910973    -0.57600
O465        O  0.14817222  0.03889625  0.02233625    -0.56700
O466        O  0.04120298  0.11096374  0.95682568    -0.57900
C467        C  0.21227405  0.05999929  0.94731958     0.74700
O468        O  0.18450741  0.22338056  0.97804521    -0.59100
C469        C  0.01115429  0.11950938  0.96875903     0.74700
C470        C  0.15954986  0.05203886  0.99596299     0.77000
Cd471      Cd  0.14102755  0.12410474  0.96924544     1.37500
O472        O  0.15514735  0.06030910  0.94675064    -0.57900
O473        O  0.15965543  0.02831075  0.98302188    -0.56800
C474        C  0.16376561  0.25376343  0.96721590     0.77000
O475        O  0.15514610  0.10900417  0.99651184    -0.59100
O476        O  0.23646913  0.09193384  0.95754721    -0.57600
O477        O  0.04083305  0.12850289  0.98062869    -0.57600
O478        O  0.13763432  0.22400521  0.95696526    -0.56700
O479        O  0.14933265  0.55185230  0.06031089    -0.57900
C480        C  0.00772325  0.60932622  0.03877415     0.74700
O481        O  0.18447489  0.71633947  0.02943342    -0.59100
C482        C  0.20630638  0.55575153  0.06086531     0.74700
C483        C  0.16058082  0.55380466  0.01013001     0.77000
Cd484      Cd  0.13810876  0.61858625  0.03808524     1.37500
O485        O  0.03780140  0.60568813  0.05077789    -0.57900
O486        O  0.16571049  0.52795505  0.02271903    -0.56800
C487        C  0.16102797  0.74840075  0.03966765     0.77000
O488        O  0.14982565  0.60980679  0.01047366    -0.59100
O489        O  0.03753563  0.61554054  0.02677262    -0.57600
O490        O  0.23124308  0.59004278  0.05124423    -0.57600
O491        O  0.13179279  0.72029580  0.04969557    -0.56700
O492        O  0.04780440  0.46226318  0.95535536    -0.57900
C493        C  0.21829902  0.51494733  0.94599463     0.74700
O494        O  0.17718171  0.46500465  0.99513344    -0.59100
C495        C  0.01651131  0.45235635  0.96702942     0.74700
C496        C  0.16492754  0.32041180  0.96697533     0.77000
Cd497      Cd  0.14705522  0.45065074  0.96833957     1.37500
O498        O  0.16126990  0.51343128  0.94590116    -0.57900
O499        O  0.13779836  0.34927365  0.95683809    -0.56800
C500        C  0.16205190  0.52000724  0.99585063     0.77000
O501        O  0.18891452  0.35183305  0.97728852    -0.59100
O502        O  0.24378113  0.48455901  0.95618312    -0.57600
O503        O  0.04521238  0.44252795  0.97899629    -0.57600
O504        O  0.14423612  0.54370015  0.98375846    -0.56700
C505        C  0.72326209  0.08071252  0.43633599     0.86400
C506        C  0.71006416  0.07072701  0.41959768    -0.53900
C507        C  0.74342682  0.10719972  0.41033524     0.09300
C508        C  0.78690626  0.14989325  0.41870138     0.20200
C509        C  0.79174786  0.07179654  0.43774683    -0.54600
C510        C  0.82499941  0.10835677  0.42855299     0.09400
C511        C  0.71353626  0.14854686  0.43910992    -0.54100
C512        C  0.74680885  0.18490855  0.42982566     0.10000
H513        H  0.67809829  0.03723255  0.41543963     0.14500
H514        H  0.81465693  0.17909260  0.41121319     0.00200
H515        H  0.81233488  0.03929176  0.44523578     0.14800
H516        H  0.68451822  0.16608974  0.44794136     0.14600
C517        C  0.73315069  0.54935557  0.43871205     0.86400
C518        C  0.80098256  0.56253042  0.43979850    -0.53900
C519        C  0.83498346  0.52808254  0.43041009     0.09300
C520        C  0.79836457  0.48295120  0.42088888     0.20200
C521        C  0.71756782  0.55706080  0.42202807    -0.54600
C522        C  0.75206353  0.52238595  0.41264914     0.09400
C523        C  0.72674630  0.48123272  0.44166133    -0.54100
C524        C  0.76103391  0.44616537  0.43233846     0.10000
H525        H  0.82080076  0.59562404  0.44737999     0.14500
H526        H  0.82638689  0.45472142  0.41327236     0.00200
H527        H  0.68218728  0.58662956  0.41803914     0.14800
H528        H  0.69711309  0.46238912  0.45022005     0.14600
C529        C  0.18632675  0.08629904  0.43591852     0.86400
C530        C  0.11834288  0.07294569  0.43621972    -0.53900
C531        C  0.08568138  0.10738045  0.42657457     0.09300
C532        C  0.12426297  0.15273081  0.41750351     0.20200
C533        C  0.20496596  0.07882980  0.41939245    -0.54600
C534        C  0.17282677  0.11385876  0.40965479     0.09400
C535        C  0.19175936  0.15444226  0.43902928    -0.54100
C536        C  0.15903883  0.18953781  0.42946760     0.10000
H537        H  0.09733430  0.04012559  0.44366537     0.14500
H538        H  0.09742031  0.18077520  0.40971002     0.00200
H539        H  0.23994555  0.04789641  0.41570542     0.14800
H540        H  0.21948843  0.17331490  0.44795145     0.14600
C541        C  0.19586909  0.55538466  0.43623686     0.86400
C542        C  0.20556407  0.56711544  0.41932824    -0.53900
C543        C  0.17009566  0.53133869  0.41030880     0.09300
C544        C  0.12902939  0.48759384  0.41908577     0.20200
C545        C  0.12807079  0.56337389  0.43884157    -0.54600
C546        C  0.09342836  0.52736993  0.43001306     0.09400
C547        C  0.20673486  0.48717958  0.43823410    -0.54100
C548        C  0.17182622  0.45151537  0.42911365     0.10000
H549        H  0.23884587  0.59879253  0.41496018     0.14500
H550        H  0.09977780  0.45900621  0.41180311     0.00200
H551        H  0.10867545  0.59487440  0.44687576     0.14800
H552        H  0.23753740  0.46896939  0.44649866     0.14600
C553        C  0.19686149  0.06700343  0.31876964     0.86400
C554        C  0.20222949  0.13560876  0.31663862    -0.53900
C555        C  0.16571790  0.16798445  0.32594659     0.09300
C556        C  0.12642102  0.12917873  0.33637680     0.20200
C557        C  0.20899444  0.05706178  0.33561666    -0.54600
C558        C  0.17191181  0.08990024  0.34486664     0.09400
C559        C  0.12926047  0.05288234  0.31664913    -0.54100
C560        C  0.09255173  0.08542161  0.32595045     0.10000
H561        H  0.23274930  0.15709022  0.30867471     0.14500
H562        H  0.09618773  0.15601477  0.34379034     0.00200
H563        H  0.24537462  0.02913459  0.33976023     0.14800
H564        H  0.11200857  0.02077480  0.30843651     0.14600
C565        C  0.72952629  0.06680461  0.31989912     0.86400
C566        C  0.79713072  0.05673279  0.31720359    -0.53900
C567        C  0.83308747  0.09097913  0.32627741     0.09300
C568        C  0.79852855  0.13148143  0.33728859     0.20200
C569        C  0.71937133  0.05462843  0.33671620    -0.54600
C570        C  0.75583834  0.08871146  0.34580867     0.09400
C571        C  0.72105102  0.13520398  0.31808968    -0.54100
C572        C  0.75662337  0.16902577  0.32738107     0.10000
H573        H  0.81500035  0.02557446  0.30887264     0.14500
H574        H  0.82823119  0.15891097  0.34473430     0.00200
H575        H  0.68504911  0.02389732  0.34101611     0.14800
H576        H  0.69059227  0.15522592  0.31001552     0.14600
C577        C  0.73200731  0.53128503  0.32149407     0.86400
C578        C  0.72666135  0.46283191  0.31916230    -0.53900
C579        C  0.76223291  0.42989626  0.32841090     0.09300
C580        C  0.79965084  0.46868479  0.33943704     0.20200
C581        C  0.71775628  0.54165211  0.33820375    -0.54600
C582        C  0.75273069  0.50838127  0.34769476     0.09400
C583        C  0.79975973  0.54530967  0.31991336    -0.54100
C584        C  0.83582545  0.51303661  0.32936420     0.10000
H585        H  0.69742368  0.44180132  0.31085596     0.14500
H586        H  0.82773538  0.44106476  0.34701957     0.00200
H587        H  0.68294605  0.57226634  0.34216930     0.14800
H588        H  0.81760171  0.57785869  0.31190201     0.14600
C589        C  0.20319675  0.52961355  0.31933501     0.86400
C590        C  0.21469468  0.53996973  0.33616921    -0.53900
C591        C  0.17698451  0.50739892  0.34534485     0.09300
C592        C  0.13138803  0.46747085  0.33667565     0.20200
C593        C  0.20778062  0.46092679  0.31705694    -0.54600
C594        C  0.16981422  0.42840677  0.32603350     0.09400
C595        C  0.13600104  0.54421893  0.31723050    -0.54100
C596        C  0.09810387  0.51140201  0.32623960     0.10000
H597        H  0.24881069  0.57098075  0.34044115     0.14500
H598        H  0.10080078  0.44067225  0.34402785     0.00200
H599        H  0.23807273  0.43962539  0.30903863     0.14800
H600        H  0.12021366  0.57864916  0.30956114     0.14600
O601        O  0.20584042  0.97602676  0.19614861    -0.57900
C602        C  0.14155482  0.83632345  0.21782518     0.74700
O603        O  0.14677590  0.98601681  0.24533998    -0.59100
C604        C  0.20288590  0.03300110  0.19593360     0.74700
C605        C  0.00597598  0.98087493  0.21793635     0.77000
Cd606      Cd  0.13630975  0.96465329  0.21821468     1.37500
O607        O  0.14179163  0.86563170  0.20564416    -0.57900
O608        O  0.03366605  0.94889629  0.20838357    -0.56800
C609        C  0.20385071  0.98361177  0.24538614     0.77000
O610        O  0.03853993  0.01077067  0.22700979    -0.59100
O611        O  0.14084325  0.86635826  0.22989531    -0.57600
O612        O  0.16643633  0.05682906  0.20523069    -0.57600
O613        O  0.22970608  0.97754621  0.23279559    -0.56700
O614        O  0.23722579  0.97425735  0.30853156    -0.57900
C615        C  0.30220844  0.83285600  0.28728457     0.74700
O616        O  0.29525691  0.98441981  0.25949471    -0.59100
C617        C  0.23704898  0.03138570  0.30836265     0.74700
C618        C  0.43308906  0.98585020  0.28927962     0.77000
Cd619      Cd  0.30491117  0.96288818  0.28663237     1.37500
O620        O  0.28678759  0.86356414  0.29865145    -0.57900
O621        O  0.40268050  0.96014281  0.29948957    -0.56800
C622        C  0.23815912  0.98266058  0.25940274     0.77000
O623        O  0.40364121  0.00749264  0.27841492    -0.59100
O624        O  0.31795951  0.86195926  0.27572638    -0.57600
O625        O  0.27099357  0.05669771  0.29870408    -0.57600
O626        O  0.21209788  0.97567151  0.27192956    -0.56700
O627        O  0.69297632  0.97229264  0.30986536    -0.57900
C628        C  0.63060804  0.82930719  0.28882193     0.74700
O629        O  0.53110699  0.00241734  0.27845833    -0.59100
C630        C  0.69090576  0.02938598  0.30966170     0.74700
C631        C  0.70111195  0.97837592  0.26192072     0.77000
Cd632      Cd  0.62716326  0.95881236  0.28803410     1.37500
O633        O  0.63683460  0.86010004  0.30071697    -0.57900
O634        O  0.72400736  0.97182171  0.27478341    -0.56800
C635        C  0.49938523  0.98442748  0.28944976     0.77000
O636        O  0.64406100  0.98029387  0.26123533    -0.59100
O637        O  0.62224699  0.85813656  0.27680538    -0.57600
O638        O  0.65650277  0.05319355  0.30003577    -0.57600
O639        O  0.52727014  0.95969573  0.30013044    -0.56700
O640        O  0.79660048  0.86124823  0.20884628    -0.57900
C641        C  0.74718612  0.03196144  0.20014502     0.74700
O642        O  0.79577697  0.97949231  0.24890426    -0.59100
C643        C  0.80107270  0.83045459  0.22073792     0.74700
C644        C  0.93945505  0.97924277  0.21885793     0.77000
Cd645      Cd  0.80969008  0.95982248  0.22170440     1.37500
O646        O  0.74440039  0.97486888  0.19990956    -0.57900
O647        O  0.90912326  0.94746556  0.20976327    -0.56800
C648        C  0.73859123  0.97858085  0.24834801     0.77000
O649        O  0.90980625  0.00581923  0.22911392    -0.59100
O650        O  0.78085246  0.05578695  0.21004084    -0.57600
O651        O  0.80803244  0.85929736  0.23288280    -0.57600
O652        O  0.71498995  0.97346501  0.23550808    -0.56700
O653        O  0.24395977  0.62323199  0.30962959    -0.57900
C654        C  0.30274189  0.76680490  0.28741582     0.74700
O655        O  0.40449726  0.58754046  0.27990931    -0.59100
C656        C  0.24299922  0.56609998  0.30900310     0.74700
C657        C  0.23720876  0.62052691  0.26025046     0.77000
Cd658      Cd  0.30715693  0.63700381  0.28711536     1.37500
O659        O  0.28725895  0.73659747  0.29886631    -0.57900
O660        O  0.21266014  0.62267584  0.27307033    -0.56800
C661        C  0.43503183  0.61475887  0.28989078     0.77000
O662        O  0.29435894  0.62066164  0.25985706    -0.59100
O663        O  0.31958395  0.73725556  0.27600380    -0.57600
O664        O  0.27481660  0.54174111  0.29879986    -0.57600
O665        O  0.40595542  0.64750821  0.29900688    -0.56700
O666        O  0.20247300  0.62935663  0.19820455    -0.57900
C667        C  0.14031350  0.77069574  0.21816274     0.74700
O668        O  0.03534695  0.59371141  0.22748454    -0.59100
C669        C  0.20055775  0.57234850  0.19884111     0.74700
C670        C  0.20123172  0.62269114  0.24651381     0.77000
Cd671      Cd  0.13286687  0.64260004  0.21966189     1.37500
O672        O  0.14219840  0.73919435  0.20629074    -0.57900
O673        O  0.22617795  0.62777478  0.23379368    -0.56800
C674        C  0.00381030  0.62051255  0.21776194     0.77000
O675        O  0.14404793  0.62373858  0.24685215    -0.59100
O676        O  0.13584428  0.74293182  0.23049966    -0.57600
O677        O  0.16453067  0.54927676  0.20835541    -0.57600
O678        O  0.03220550  0.65275330  0.20837631    -0.56700
O679        O  0.69509639  0.62403329  0.31066991    -0.57900
C680        C  0.63227079  0.76340288  0.28882043     0.74700
O681        O  0.64369897  0.61334738  0.26107303    -0.59100
C682        C  0.69378198  0.56690459  0.31079172     0.74700
C683        C  0.50132187  0.61371491  0.29024817     0.77000
Cd684      Cd  0.63018338  0.63397678  0.28831400     1.37500
O685        O  0.64177268  0.73348180  0.30065099    -0.57900
O686        O  0.52989771  0.64676709  0.29940824    -0.56800
C687        C  0.70085404  0.61425623  0.26135637     0.77000
O688        O  0.53268756  0.58426906  0.28084867    -0.59100
O689        O  0.62365358  0.73368664  0.27687246    -0.57600
O690        O  0.66034437  0.54138393  0.30109027    -0.57600
O691        O  0.72511088  0.61997952  0.27411417    -0.56700
O692        O  0.74668521  0.62566971  0.19774922    -0.57900
C693        C  0.80059528  0.76450437  0.22056387     0.74700
O694        O  0.79439986  0.61449979  0.24780885    -0.59100
C695        C  0.74658159  0.56857076  0.19741829     0.74700
C696        C  0.93738198  0.61913244  0.21797036     0.77000
Cd697      Cd  0.80786753  0.63531199  0.22056358     1.37500
O698        O  0.78931390  0.73439672  0.20879071    -0.57900
O699        O  0.90768625  0.65260625  0.20928528    -0.56800
C700        C  0.73724606  0.61404913  0.24751801     0.77000
O701        O  0.90705965  0.58842595  0.22736597    -0.59100
O702        O  0.81332172  0.73498092  0.23223337    -0.57600
O703        O  0.77782684  0.54224587  0.20732924    -0.57600
O704        O  0.71299420  0.61809453  0.23473718    -0.56700
C705        C  0.23952215  0.53365973  0.18899663     0.86400
C706        C  0.30806166  0.54347164  0.19109558    -0.53900
C707        C  0.34301199  0.50643103  0.18230756     0.09300
C708        C  0.30558040  0.46383120  0.17222359     0.20200
C709        C  0.22882507  0.54209002  0.17209746    -0.54600
C710        C  0.26417474  0.50599928  0.16323028     0.09400
C711        C  0.22883980  0.46636269  0.19182524    -0.54100
C712        C  0.26298869  0.43017244  0.18307914     0.10000
H713        H  0.32708692  0.57671752  0.19876791     0.14500
H714        H  0.33331581  0.43370334  0.16501912     0.00200
H715        H  0.19550237  0.57284499  0.16761539     0.14800
H716        H  0.19648036  0.44822826  0.19986697     0.14600
C717        C  0.24242775  0.07104593  0.18574091     0.86400
C718        C  0.23338814  0.13812878  0.18873571    -0.53900
C719        C  0.26823441  0.17432592  0.18013909     0.09300
C720        C  0.31041482  0.14088778  0.16916822     0.20200
C721        C  0.23196125  0.06340487  0.16870238    -0.54600
C722        C  0.26759237  0.10039284  0.15984624     0.09400
C723        C  0.31071450  0.06087552  0.18783136    -0.54100
C724        C  0.34661999  0.09690379  0.17897762     0.10000
H725        H  0.20151329  0.15636877  0.19685640     0.14500
H726        H  0.34057288  0.17108460  0.16269152     0.00200
H727        H  0.19936151  0.03155917  0.16411068     0.14800
H728        H  0.32895232  0.02789453  0.19556450     0.14600
C729        C  0.71162626  0.06892005  0.18923016     0.86400
C730        C  0.72707152  0.05477577  0.17277543    -0.53900
C731        C  0.69473112  0.08749527  0.16270519     0.09300
C732        C  0.64930651  0.13082013  0.17009883     0.20200
C733        C  0.71988699  0.13771013  0.19090109    -0.54600
C734        C  0.68775982  0.17042494  0.18071722     0.09400
C735        C  0.64319468  0.05858932  0.19056686    -0.54100
C736        C  0.60997336  0.09211111  0.18078271     0.10000
H737        H  0.76100137  0.02218477  0.16939147     0.14500
H738        H  0.62287356  0.15620894  0.16168682     0.00200
H739        H  0.74686075  0.15846274  0.19968267     0.14800
H740        H  0.62298411  0.02778934  0.19864810     0.14600
C741        C  0.70807390  0.53436152  0.18636063     0.86400
C742        C  0.71168922  0.46527995  0.18788323    -0.53900
C743        C  0.67604067  0.43321091  0.17806253     0.09300
C744        C  0.63852688  0.47524945  0.16797712     0.20200
C745        C  0.72224437  0.54679538  0.16969791    -0.54600
C746        C  0.68553204  0.51533246  0.16008586     0.09400
C747        C  0.64095430  0.54874188  0.18834459    -0.54100
C748        C  0.60437533  0.51793496  0.17873243     0.10000
H749        H  0.74050519  0.44371379  0.19608263     0.14500
H750        H  0.60901710  0.45322940  0.15970025     0.00200
H751        H  0.75940237  0.57520916  0.16589959     0.14800
H752        H  0.62363397  0.57859262  0.19704347     0.14600
C753        C  0.71495739  0.04048235  0.07182504     0.86400
C754        C  0.73148748  0.03116048  0.08843288    -0.53900
C755        C  0.69932308  0.06718011  0.09807046     0.09300
C756        C  0.65455267  0.10925374  0.09017638     0.20200
C757        C  0.64642199  0.03068078  0.07121706    -0.54600
C758        C  0.61444705  0.06708364  0.08073993     0.09400
C759        C  0.72382843  0.10852947  0.06900857    -0.54100
C760        C  0.69254643  0.14464827  0.07872190     0.10000
H761        H  0.76587733  0.99992796  0.09215722     0.14500
H762        H  0.62932666  0.13941788  0.09789108     0.00200
H763        H  0.62473690  0.99896481  0.06358214     0.14800
H764        H  0.75079176  0.12630087  0.05979399     0.14600
C765        C  0.70596970  0.50945646  0.06923715     0.86400
C766        C  0.63788948  0.52135129  0.06879671    -0.53900
C767        C  0.60515401  0.48788000  0.07880300     0.09300
C768        C  0.64376482  0.44489197  0.08829535     0.20200
C769        C  0.72391053  0.52014312  0.08565635    -0.54600
C770        C  0.69161090  0.48625111  0.09569064     0.09400
C771        C  0.71183972  0.44094885  0.06678512    -0.54100
C772        C  0.67892208  0.40668005  0.07669380     0.10000
H773        H  0.61700889  0.55300981  0.06113925     0.14500
H774        H  0.61724829  0.41775905  0.09647261     0.00200
H775        H  0.75828544  0.55256525  0.08907343     0.14800
H776        H  0.73975026  0.42133387  0.05799859     0.14600
C777        C  0.25225564  0.05064813  0.06867850     0.86400
C778        C  0.32039357  0.03914404  0.06736282    -0.53900
C779        C  0.35467465  0.07593797  0.07625670     0.09300
C780        C  0.31784871  0.11997563  0.08582212     0.20200
C781        C  0.23822340  0.04354810  0.08555577    -0.54600
C782        C  0.27320255  0.07983289  0.09457409     0.09400
C783        C  0.24465059  0.11863384  0.06561982    -0.54100
C784        C  0.27924374  0.15491586  0.07462618     0.10000
H785        H  0.33972770  0.00392286  0.06036444     0.14500
H786        H  0.34598976  0.14970772  0.09307341     0.00200
H787        H  0.20328366  0.01361927  0.08988905     0.14800
H788        H  0.21398609  0.13644917  0.05726452     0.14600
C789        C  0.24257989  0.51845556  0.07172485     0.86400
C790        C  0.22978549  0.52906029  0.08857588    -0.53900
C791        C  0.26302715  0.49295435  0.09792261     0.09300
C792        C  0.30624581  0.45042090  0.08937559     0.20200
C793        C  0.31100462  0.52770033  0.07008535    -0.54600
C794        C  0.34433787  0.49138358  0.07910347     0.09400
C795        C  0.23236284  0.45045968  0.06925492    -0.54100
C796        C  0.26564456  0.41487360  0.07850215     0.10000
H797        H  0.19744314  0.56188078  0.09270434     0.14500
H798        H  0.33411425  0.42143818  0.09673743     0.00200
H799        H  0.33154033  0.55996668  0.06241888     0.14800
H800        H  0.20310868  0.43209103  0.06057539     0.14600
C801        C  0.21977535  0.24933372  0.07706198    -0.09300
C802        C  0.27594383  0.22174790  0.07467994     0.06900
C803        C  0.32821038  0.25829634  0.07352697    -0.03100
C804        C  0.32355725  0.32101075  0.07470107    -0.07500
C805        C  0.26755765  0.34843577  0.07709827     0.06000
C806        C  0.21528623  0.31218706  0.07838002    -0.02500
Br807      Br  0.13802287  0.34581830  0.08335141    -0.02200
H808        H  0.17958311  0.22173866  0.07842773     0.09900
H809        H  0.36393158  0.34861288  0.07366813     0.08000
Br810      Br  0.40702978  0.22610454  0.06985580    -0.02700
C811        C  0.44226697  0.49535841  0.09238512    -0.09300
C812        C  0.41105114  0.49034272  0.07877420     0.06900
C813        C  0.44400683  0.48465618  0.06523230    -0.03100
C814        C  0.50697379  0.48406372  0.06558806    -0.07500
C815        C  0.53833476  0.48956329  0.07920364     0.06000
C816        C  0.50535340  0.49602742  0.09268872    -0.02500
Br817      Br  0.54296305  0.51191965  0.11163675    -0.02200
H818        H  0.41738353  0.50078604  0.10280842     0.09900
H819        H  0.53167990  0.47837958  0.05514915     0.08000
Br820      Br  0.40641502  0.47451672  0.04595536    -0.02700
C821        C  0.52046293  0.06984221  0.06589237    -0.09300
C822        C  0.54769619  0.07055315  0.08012807     0.06900
C823        C  0.51070143  0.07449769  0.09306297    -0.03100
C824        C  0.44799071  0.07524618  0.09147055    -0.07500
C825        C  0.42107108  0.07285083  0.07722654     0.06000
C826        C  0.45799205  0.07102969  0.06432154    -0.02500
Br827      Br  0.42687410  0.07508824  0.04422714    -0.02200
H828        H  0.54809944  0.06940620  0.05582187     0.09900
H829        H  0.41999051  0.07700744  0.10147923     0.08000
Br830      Br  0.54121918  0.07605412  0.11323335    -0.02700
C831        C  0.63393895  0.23978528  0.07851189    -0.09300
C832        C  0.69042775  0.21162262  0.07773021     0.06900
C833        C  0.74277075  0.24790230  0.07647119    -0.03100
C834        C  0.73763781  0.31090838  0.07587841    -0.07500
C835        C  0.68106952  0.33927550  0.07675621     0.06000
C836        C  0.62874306  0.30270005  0.07803811    -0.02500
Br837      Br  0.54838891  0.33428665  0.07822824    -0.02200
H838        H  0.59322435  0.21254809  0.07929617     0.09900
H839        H  0.77840360  0.33807132  0.07520190     0.08000
Br840      Br  0.82261376  0.21476567  0.07676904    -0.02700
C841        C  0.70168843  0.45310490  0.13739701    -0.09300
C842        C  0.69460656  0.51093895  0.14363322     0.06900
C843        C  0.69059605  0.56109000  0.13402225    -0.03100
C844        C  0.69266678  0.55240896  0.11841652    -0.07500
C845        C  0.69738739  0.49408057  0.11218456     0.06000
C846        C  0.70309052  0.44429403  0.12186714    -0.02500
Br847      Br  0.71486664  0.36342148  0.11470155    -0.02200
H848        H  0.70523741  0.41421856  0.14468700     0.09900
H849        H  0.68730958  0.59103487  0.11111012     0.08000
Br850      Br  0.67620617  0.64104193  0.14151992    -0.02700
C851        C  0.69748077  0.02422846  0.13943934    -0.09300
C852        C  0.70266127  0.08153832  0.14618280     0.06900
C853        C  0.71366101  0.13217831  0.13695953    -0.03100
C854        C  0.71487006  0.12557028  0.12137210    -0.07500
C855        C  0.70681350  0.06895514  0.11459294     0.06000
C856        C  0.69970530  0.01751979  0.12376226    -0.02500
Br857      Br  0.68801912  0.93807568  0.11555655    -0.02200
H858        H  0.68961916  0.98479187  0.14636730     0.09900
H859        H  0.72171394  0.16521547  0.11444450     0.08000
Br860      Br  0.73110239  0.21113345  0.14469343    -0.02700
C861        C  0.63257978  0.26515120  0.17604386    -0.09300
C862        C  0.68665393  0.23755637  0.18016006     0.06900
C863        C  0.73860099  0.27410187  0.18188386    -0.03100
C864        C  0.73369429  0.33697397  0.18089293    -0.07500
C865        C  0.67871195  0.36524013  0.17717039     0.06000
C866        C  0.62925408  0.32700820  0.17335505    -0.02500
Br867      Br  0.55851974  0.34903993  0.16237911    -0.02200
H868        H  0.59252526  0.23795000  0.17416729     0.09900
H869        H  0.77425864  0.36375699  0.18246700     0.08000
Br870      Br  0.81855398  0.24172436  0.18373680    -0.02700
C871        C  0.27151949  0.14088221  0.11786136    -0.09300
C872        C  0.26845698  0.08361786  0.11120169     0.06900
C873        C  0.26728522  0.03243840  0.12054470    -0.03100
C874        C  0.26428826  0.03964727  0.13618529    -0.07500
C875        C  0.26752287  0.09720436  0.14298461     0.06000
C876        C  0.27436709  0.14821390  0.13342159    -0.02500
Br877      Br  0.29261153  0.22931269  0.13966366    -0.02200
H878        H  0.27414026  0.18072529  0.11082548     0.09900
H879        H  0.26343601  0.99952557  0.14312243     0.08000
Br880      Br  0.27856995  0.95228770  0.11281389    -0.02700
C881        C  0.51273936  0.08984178  0.16689242    -0.09300
C882        C  0.54254483  0.09313764  0.18072191     0.06900
C883        C  0.50739815  0.09871328  0.19398251    -0.03100
C884        C  0.44407794  0.09898177  0.19313896    -0.07500
C885        C  0.41419951  0.09514807  0.17926586     0.06000
C886        C  0.44961697  0.09070280  0.16603650    -0.02500
Br887      Br  0.41596482  0.08118819  0.14640301    -0.02200
H888        H  0.53879860  0.08534180  0.15662014     0.09900
H889        H  0.41795640  0.10379215  0.20339280     0.08000
Br890      Br  0.54247917  0.11144509  0.21345514    -0.02700
C891        C  0.25775806  0.44845517  0.13934150    -0.09300
C892        C  0.26141659  0.50468020  0.14653602     0.06900
C893        C  0.26406374  0.55739124  0.13766227    -0.03100
C894        C  0.26308267  0.55271274  0.12191235    -0.07500
C895        C  0.25977105  0.49611991  0.11469330     0.06000
C896        C  0.25614742  0.44368690  0.12369355    -0.02500
Br897      Br  0.24459520  0.36401557  0.11572323    -0.02200
H898        H  0.25545853  0.40758590  0.14594432     0.09900
H899        H  0.26679576  0.59347255  0.11526332     0.08000
Br900      Br  0.27439858  0.63635144  0.14632321    -0.02700
C901        C  0.22435293  0.33462870  0.17250123    -0.09300
C902        C  0.25727414  0.36452660  0.18368561     0.06900
C903        C  0.28334051  0.33119125  0.19537962    -0.03100
C904        C  0.28938254  0.26898223  0.19365885    -0.07500
C905        C  0.26277466  0.23966651  0.18137862     0.06000
C906        C  0.22380520  0.27177740  0.17193185    -0.02500
Br907      Br  0.16395852  0.23187117  0.15976678    -0.02200
H908        H  0.19735957  0.36002450  0.16464996     0.09900
H909        H  0.31323264  0.24325957  0.20207447     0.08000
Br910      Br  0.30940974  0.36805184  0.21386391    -0.02700
C911        C  0.43912496  0.56564942  0.17919207    -0.09300
C912        C  0.41034617  0.50974059  0.18190079     0.06900
C913        C  0.44680421  0.45816422  0.18377312    -0.03100
C914        C  0.50943445  0.46365271  0.18369039    -0.07500
C915        C  0.53781136  0.51804784  0.18015344     0.06000
C916        C  0.50236144  0.56978600  0.17792922    -0.02500
Br917      Br  0.53806547  0.64552820  0.17229087    -0.02200
H918        H  0.41222261  0.60571372  0.17742720     0.09900
H919        H  0.53655422  0.42465882  0.18628284     0.08000
Br920      Br  0.41667790  0.37790956  0.18604310    -0.02700
C921        C  0.93240233  0.51882818  0.31466983    -0.09300
C922        C  0.90330897  0.51738286  0.32877810     0.06900
C923        C  0.93947230  0.51775004  0.34181483    -0.03100
C924        C  0.00239465  0.51859477  0.34058472    -0.07500
C925        C  0.03129171  0.51792958  0.32655444     0.06000
C926        C  0.99556466  0.51851174  0.31343350    -0.02500
Br927      Br  0.02934237  0.51159748  0.29356873    -0.02200
H928        H  0.90584465  0.51719676  0.30448450     0.09900
H929        H  0.02909475  0.51899666  0.35076393     0.08000
Br930      Br  0.90720928  0.51852421  0.36174999    -0.02700
C931        C  0.70570366  0.33235497  0.32862513    -0.09300
C932        C  0.76148329  0.36291860  0.32807209     0.06900
C933        C  0.81487564  0.32904535  0.32711192    -0.03100
C934        C  0.81214901  0.26608920  0.32702142    -0.07500
C935        C  0.75660537  0.23565848  0.32762026     0.06000
C936        C  0.70284670  0.26925885  0.32853004    -0.02500
Br937      Br  0.62479508  0.23190855  0.33078425    -0.02200
H938        H  0.66419684  0.35774446  0.32953222     0.09900
H939        H  0.85369027  0.24074332  0.32609870     0.08000
Br940      Br  0.89228757  0.36551746  0.32444900    -0.02700
C941        C  0.99542117  0.10976048  0.31357301    -0.09300
C942        C  0.02598353  0.08238969  0.32551042     0.06900
C943        C  0.99253765  0.05761798  0.33751642    -0.03100
C944        C  0.92967949  0.06121646  0.33759196    -0.07500
C945        C  0.89930300  0.08856503  0.32572105     0.06000
C946        C  0.93230025  0.11316276  0.31363463    -0.02500
Br947      Br  0.89306139  0.15504879  0.29759213    -0.02200
H948        H  0.02079565  0.13008266  0.30443721     0.09900
H949        H  0.90428663  0.04211847  0.34689357     0.08000
Br950      Br  0.02986776  0.01654526  0.35383622    -0.02700
C951        C  0.22033537  0.32965590  0.32942956    -0.09300
C952        C  0.16793087  0.36155178  0.32581002     0.06900
C953        C  0.11486968  0.32916753  0.32227988    -0.03100
C954        C  0.11431709  0.26605372  0.32275873    -0.07500
C955        C  0.16667645  0.23444785  0.32640226     0.06000
C956        C  0.21983598  0.26658840  0.32994584    -0.02500
Br957      Br  0.29159883  0.22652594  0.33649104    -0.02200
H958        H  0.26132494  0.35402503  0.33228640     0.09900
H959        H  0.07351233  0.24150873  0.31980588     0.08000
Br960      Br  0.04422444  0.36816978  0.31514941    -0.02700
C961        C  0.17914886  0.47066529  0.38709336    -0.09300
C962        C  0.17455704  0.52808117  0.39366429     0.06900
C963        C  0.17102209  0.57906172  0.38424904    -0.03100
C964        C  0.17302130  0.57156565  0.36856163    -0.07500
C965        C  0.17715807  0.51370878  0.36201419     0.06000
C966        C  0.18001936  0.46304276  0.37152888    -0.02500
Br967      Br  0.18786726  0.38204336  0.36426572    -0.02200
H968        H  0.18222072  0.43103797  0.39416003     0.09900
H969        H  0.16950731  0.61094346  0.36143177     0.08000
Br970      Br  0.15822833  0.65882357  0.39210186    -0.02700
C971        C  0.18061042  0.05096606  0.38647283    -0.09300
C972        C  0.17941685  0.10883975  0.39303878     0.06900
C973        C  0.18089130  0.15981629  0.38355890    -0.03100
C974        C  0.17983092  0.15210985  0.36796381    -0.07500
C975        C  0.17850665  0.09430585  0.36142765     0.06000
C976        C  0.18028566  0.04328238  0.37084888    -0.02500
Br977      Br  0.17717428  0.96207471  0.36325367    -0.02200
H978        H  0.17920479  0.01127044  0.39354304     0.09900
H979        H  0.18018185  0.19176015  0.36087165     0.08000
Br980      Br  0.18804588  0.24100629  0.39095491    -0.02700
C981        C  0.21810941  0.28577083  0.42965128    -0.09300
C982        C  0.16146536  0.25673453  0.42994906     0.06900
C983        C  0.10895303  0.29244018  0.43019451    -0.03100
C984        C  0.11380879  0.35542352  0.43008900    -0.07500
C985        C  0.17028575  0.38443874  0.42962691     0.06000
C986        C  0.22291707  0.34891667  0.42924855    -0.02500
Br987      Br  0.30198892  0.38339587  0.42667509    -0.02200
H988        H  0.25888535  0.25905815  0.42913512     0.09900
H989        H  0.07292138  0.38198756  0.43052923     0.08000
Br990      Br  0.02922036  0.25902510  0.43153314    -0.02700
C991        C  0.74002669  0.46515191  0.38894929    -0.09300
C992        C  0.74587376  0.52124796  0.39607726     0.06900
C993        C  0.75052396  0.57387085  0.38720379    -0.03100
C994        C  0.75108339  0.56890022  0.37147533    -0.07500
C995        C  0.74722601  0.51216248  0.36435478     0.06000
C996        C  0.74031786  0.46009492  0.37331835    -0.02500
Br997      Br  0.72849247  0.38101645  0.36507371    -0.02200
H998        H  0.73551400  0.42395709  0.39575474     0.09900
H999        H  0.75688362  0.60924268  0.36479489     0.08000
Br1000     Br  0.76277182  0.65267346  0.39588149    -0.02700
C1001       C  0.93213791  0.51968562  0.44376828    -0.09300
C1002       C  0.90125535  0.53126812  0.43037172     0.06900
C1003       C  0.93413599  0.54391181  0.41720569    -0.03100
C1004       C  0.99679160  0.54156821  0.41732461    -0.07500
C1005       C  0.02748524  0.52833442  0.43055210     0.06000
C1006       C  0.99504399  0.51780220  0.44394454    -0.02500
Br1007     Br  0.03388277  0.49695981  0.46244756    -0.02200
H1008       H  0.90714928  0.51003276  0.45398542     0.09900
H1009       H  0.02181103  0.55153597  0.40712554     0.08000
Br1010     Br  0.89710989  0.57027434  0.39916026    -0.02700
C1011       C  0.75136957  0.04545718  0.38703598    -0.09300
C1012       C  0.74226163  0.10220223  0.39377628     0.06900
C1013       C  0.73618713  0.15353272  0.38459488    -0.03100
C1014       C  0.74008003  0.14758962  0.36902462    -0.07500
C1015       C  0.74986197  0.09117318  0.36230503     0.06000
C1016       C  0.75561863  0.03967522  0.37140043    -0.02500
Br1017     Br  0.77451211  0.96189157  0.36312312    -0.02200
H1018       H  0.75741442  0.00585263  0.39398490     0.09900
H1019       H  0.73518517  0.18740022  0.36208654     0.08000
Br1020     Br  0.72005153  0.23262660  0.39242977    -0.02700
C1021       C  0.92128755  0.09947523  0.41427828    -0.09300
C1022       C  0.89164960  0.10792476  0.42808824     0.06900
C1023       C  0.92597948  0.11617943  0.44121652    -0.03100
C1024       C  0.98885300  0.11433992  0.44043598    -0.07500
C1025       C  0.01878720  0.10606772  0.42665243     0.06000
C1026       C  0.98446373  0.09835368  0.41347087    -0.02500
Br1027     Br  0.02098029  0.08215642  0.39433604    -0.02200
H1028       H  0.89515440  0.09276773  0.40413131     0.09900
H1029       H  0.01469966  0.12161847  0.45060251     0.08000
Br1030     Br  0.88967712  0.13519612  0.46027061    -0.02700
C1031       C  0.80511385  0.28011824  0.43236362    -0.09300
C1032       C  0.74864685  0.25168561  0.43109054     0.06900
C1033       C  0.69617097  0.28742389  0.43070697    -0.03100
C1034       C  0.70126759  0.35048798  0.43136257    -0.07500
C1035       C  0.75792235  0.37906351  0.43244893     0.06000
C1036       C  0.81007812  0.34301604  0.43324026    -0.02500
Br1037     Br  0.88888928  0.37584469  0.43674866    -0.02200
H1038       H  0.84553551  0.25318367  0.43295756     0.09900
H1039       H  0.66060822  0.37759030  0.43064453     0.08000
Br1040     Br  0.61705389  0.25314311  0.42809337    -0.02700
C1041       C  0.75283229  0.77015319  0.56315298    -0.09300
C1042       C  0.75118796  0.74297582  0.57743787     0.06900
C1043       C  0.75040087  0.78081588  0.59021566    -0.03100
C1044       C  0.75147454  0.84346594  0.58858130    -0.07500
C1045       C  0.75219714  0.87080828  0.57439639     0.06000
C1046       C  0.75371417  0.83321629  0.56151621    -0.02500
Br1047     Br  0.76322447  0.86409206  0.54150340    -0.02200
H1048       H  0.75535606  0.74215519  0.55316303     0.09900
H1049       H  0.75110758  0.87101907  0.59863195     0.08000
Br1050     Br  0.74420011  0.75161796  0.61033549    -0.02700
C1051       C  0.99607554  0.01960623  0.56423199    -0.09300
C1052       C  0.02305070  0.02808218  0.57833203     0.06900
C1053       C  0.98616088  0.02978747  0.59127590    -0.03100
C1054       C  0.92343643  0.02610200  0.58985378    -0.07500
C1055       C  0.89651210  0.01929673  0.57571926     0.06000
C1056       C  0.93352189  0.01408028  0.56285895    -0.02500
Br1057     Br  0.90205201  0.99358118  0.54341161    -0.02200
H1058       H  0.02400828  0.01542445  0.55426104     0.09900
H1059       H  0.89549096  0.02926941  0.59984402     0.08000
Br1060     Br  0.01778297  0.03907017  0.61113026    -0.02700
C1061       C  0.99990607  0.61471071  0.56507842    -0.09300
C1062       C  0.03054496  0.61184573  0.57886993     0.06900
C1063       C  0.99614788  0.61037364  0.59226976    -0.03100
C1064       C  0.93319452  0.61074215  0.59159872    -0.07500
C1065       C  0.90278645  0.60963537  0.57782094     0.06000
C1066       C  0.93686526  0.61346836  0.56443037    -0.02500
Br1067     Br  0.90063722  0.62218330  0.54499262    -0.02200
H1068       H  0.02516725  0.61851932  0.55467502     0.09900
H1069       H  0.90792821  0.61005477  0.60201222     0.08000
Br1070     Br  0.03020304  0.60259628  0.61189274    -0.02700
C1071       C  0.17049964  0.78876508  0.56435038    -0.09300
C1072       C  0.17142900  0.75838733  0.57829919     0.06900
C1073       C  0.16690914  0.79411827  0.59150870    -0.03100
C1074       C  0.16489051  0.85683790  0.59053999    -0.07500
C1075       C  0.16692172  0.88713502  0.57679657     0.06000
C1076       C  0.16733921  0.85216236  0.56349183    -0.02500
Br1077     Br  0.15607380  0.88726237  0.54399685    -0.02200
H1078       H  0.17020606  0.76302373  0.55398252     0.09900
H1079       H  0.16142902  0.88198607  0.60086340     0.08000
Br1080     Br  0.16467344  0.76473645  0.61169644    -0.02700
C1081       C  0.20411175  0.97758322  0.61972345    -0.09300
C1082       C  0.18195616  0.03064536  0.61327177     0.06900
C1083       C  0.16266551  0.07792205  0.62275953    -0.03100
C1084       C  0.16207065  0.06969526  0.63837031    -0.07500
C1085       C  0.18030381  0.01479045  0.64468886     0.06000
C1086       C  0.20237327  0.96884023  0.63526392    -0.02500
Br1087     Br  0.23125647  0.89374247  0.64302193    -0.02200
H1088       H  0.22292577  0.94273413  0.61264598     0.09900
H1089       H  0.14568616  0.10559241  0.64558516     0.08000
Br1090     Br  0.13393565  0.15313615  0.61500351    -0.02700
C1091       C  0.69865415  0.98890697  0.63256536    -0.09300
C1092       C  0.73682866  0.02882488  0.64025862     0.06900
C1093       C  0.76895581  0.07315427  0.63221050    -0.03100
C1094       C  0.77110377  0.06992259  0.61650746    -0.07500
C1095       C  0.73806919  0.02531777  0.60881326     0.06000
C1096       C  0.69850174  0.98731851  0.61688006    -0.02500
Br1097     Br  0.64289988  0.93355886  0.60708266    -0.02200
H1098       H  0.67007160  0.95783688  0.63879259     0.09900
H1099       H  0.79866277  0.10197462  0.61030230     0.08000
Br1100     Br  0.80795033  0.13960715  0.64226920    -0.02700
C1101       C  0.92469222  0.01438712  0.68913192    -0.09300
C1102       C  0.89793043  0.01787606  0.67484328     0.06900
C1103       C  0.93640447  0.01829592  0.66207714    -0.03100
C1104       C  0.99909570  0.01591306  0.66385589    -0.07500
C1105       C  0.02536598  0.01198931  0.67810379     0.06000
C1106       C  0.98734157  0.01104481  0.69086802    -0.02500
Br1107     Br  0.01694126  0.99958944  0.71090153    -0.02200
H1108       H  0.89655668  0.01190610  0.69909497     0.09900
H1109       H  0.02770070  0.01703150  0.65394821     0.08000
Br1110     Br  0.90887312  0.02302092  0.64178816    -0.02700
C1111       C  0.18142037  0.53466414  0.63452550    -0.09300
C1112       C  0.20643012  0.58224025  0.64294349     0.06900
C1113       C  0.23219152  0.63181432  0.63537095    -0.03100
C1114       C  0.22758103  0.63590506  0.61979996    -0.07500
C1115       C  0.19454131  0.59310225  0.61169050     0.06000
C1116       C  0.17454484  0.54009395  0.61893815    -0.02500
Br1117     Br  0.13549702  0.47565326  0.60813768    -0.02200
H1118       H  0.16413866  0.49484252  0.64017190     0.09900
H1119       H  0.24898314  0.67325347  0.61401277     0.08000
Br1120     Br  0.27410399  0.69524371  0.64560463    -0.02700
C1121       C  0.12467112  0.75686161  0.67650916    -0.09300
C1122       C  0.18146192  0.73017306  0.67843944     0.06900
C1123       C  0.23245988  0.76796895  0.68048458    -0.03100
C1124       C  0.22565144  0.83052856  0.68045937    -0.07500
C1125       C  0.16882928  0.85746219  0.67873135     0.06000
C1126       C  0.11776068  0.81969920  0.67673304    -0.02500
Br1127     Br  0.03677732  0.84945614  0.67541263    -0.02200
H1128       H  0.08487957  0.72855537  0.67521982     0.09900
H1129       H  0.26568731  0.85852289  0.68164506     0.08000
Br1130     Br  0.31354007  0.73872338  0.68265094    -0.02700
C1131       C  0.80377155  0.55327128  0.63632497    -0.09300
C1132       C  0.76274541  0.58730083  0.64478799     0.06900
C1133       C  0.71493715  0.61656868  0.63748392    -0.03100
C1134       C  0.71132437  0.61486318  0.62178976    -0.07500
C1135       C  0.75529894  0.58492778  0.61325666     0.06000
C1136       C  0.79983874  0.55120786  0.62064887    -0.02500
Br1137     Br  0.85348103  0.49863444  0.60994986    -0.02200
H1138       H  0.83845909  0.52765527  0.64191562     0.09900
H1139       H  0.67529059  0.63870256  0.61620307     0.08000
Br1140     Br  0.65494160  0.66092952  0.64844887    -0.02700
C1141       C  0.77116652  0.76804058  0.66354613    -0.09300
C1142       C  0.77413579  0.74195528  0.67786286     0.06900
C1143       C  0.77527830  0.78015528  0.69057359    -0.03100
C1144       C  0.77095642  0.84260332  0.68878132    -0.07500
C1145       C  0.76500541  0.86886283  0.67450357     0.06000
C1146       C  0.76636591  0.83062676  0.66174579    -0.02500
Br1147     Br  0.75787873  0.85873503  0.64159214    -0.02200
H1148       H  0.77070588  0.73940066  0.65365248     0.09900
H1149       H  0.77255160  0.87098422  0.69871511     0.08000
Br1150     Br  0.78591159  0.75094910  0.71066457    -0.02700
C1151       C  0.94595652  0.57170430  0.66618508    -0.09300
C1152       C  0.91794251  0.59231632  0.67935522     0.06900
C1153       C  0.95418924  0.60890457  0.69170844    -0.03100
C1154       C  0.01718133  0.60403778  0.69073758    -0.07500
C1155       C  0.04511808  0.58268004  0.67758474     0.06000
C1156       C  0.00872745  0.56589830  0.66530891    -0.02500
Br1157     Br  0.04129959  0.52970181  0.64761743    -0.02200
H1158       H  0.91879567  0.55852264  0.65664540     0.09900
H1159       H  0.04460399  0.61798582  0.70021050     0.08000
Br1160     Br  0.92036832  0.64203972  0.70976022    -0.02700
C1161       C  0.51355310  0.93652278  0.92978771    -0.09300
C1162       C  0.54430696  0.99182333  0.92892203     0.06900
C1163       C  0.51116138  0.04583348  0.92810552    -0.03100
C1164       C  0.44821480  0.04375656  0.92879498    -0.07500
C1165       C  0.41714588  0.98841136  0.92975809     0.06000
C1166       C  0.45052353  0.93432139  0.93022070    -0.02500
Br1167     Br  0.41395661  0.85628758  0.93256270    -0.02200
H1168       H  0.53873492  0.89485438  0.93047964     0.09900
H1169       H  0.42323552  0.08554246  0.92804808     0.08000
Br1170     Br  0.54892801  0.12309977  0.92480654    -0.02700
C1171       C  0.26192044  0.75218371  0.94009628    -0.09300
C1172       C  0.26038322  0.72316763  0.92603138     0.06900
C1173       C  0.25696744  0.75909590  0.91295089    -0.11100
C1174       C  0.25784927  0.82217141  0.91417509    -0.07500
C1175       C  0.26041978  0.85089797  0.92823408     0.06000
C1176       C  0.26143419  0.81510592  0.94133113    -0.02500
Br1177     Br  0.26773221  0.84838927  0.96123019    -0.02200
H1178       H  0.26541031  0.72575607  0.95027192     0.09900
H1179       H  0.25593848  0.84909995  0.90403416     0.08000
Br1180     Br  0.24669525  0.72623758  0.89315536    -0.02700
C1181       C  0.67534772  0.75325934  0.94112304    -0.09300
C1182       C  0.70326107  0.72409139  0.92894713     0.06900
C1183       C  0.72761776  0.75895198  0.91716868    -0.03100
C1184       C  0.72374121  0.82196086  0.91764960    -0.07500
C1185       C  0.69563597  0.85104968  0.92976138     0.06000
C1186       C  0.67106955  0.81634146  0.94155835    -0.02500
Br1187     Br  0.62762284  0.85281853  0.95787896    -0.02200
H1188       H  0.65501734  0.72675626  0.95005259     0.09900
H1189       H  0.74258558  0.84841841  0.90851506     0.08000
Br1190     Br  0.76717669  0.72288310  0.90029139    -0.02700
C1191       C  0.51878286  0.60733277  0.91459368    -0.09300
C1192       C  0.54736831  0.59620944  0.92830348     0.06900
C1193       C  0.51105453  0.59264931  0.94134364    -0.03100
C1194       C  0.44809033  0.59253300  0.94007130    -0.07500
C1195       C  0.41903776  0.59663290  0.92603137     0.06000
C1196       C  0.45604981  0.60780877  0.91322310    -0.02500
Br1197     Br  0.42942797  0.62339689  0.89313631    -0.02200
H1198       H  0.54509940  0.61513472  0.90458465     0.09900
H1199       H  0.42166002  0.58969449  0.95030335     0.08000
Br1200     Br  0.54333336  0.59383443  0.96135230    -0.02700
C1201       C  0.21192900  0.98662565  0.88733788    -0.09300
C1202       C  0.26713268  0.00243138  0.89404015     0.06900
C1203       C  0.31688217  0.01708080  0.88482520    -0.03100
C1204       C  0.31110561  0.01507832  0.86920827    -0.07500
C1205       C  0.25630270  0.99846556  0.86248295     0.06000
C1206       C  0.20630814  0.98408354  0.87166304    -0.02500
Br1207     Br  0.13150952  0.95543006  0.86341907    -0.02200
H1208       H  0.17370313  0.97416314  0.89433277     0.09900
H1209       H  0.34988733  0.02605749  0.86224374     0.08000
Br1210     Br  0.39338643  0.04138045  0.89284197    -0.02700
C1211       C  0.73407251  0.00357296  0.86898450    -0.09300
C1212       C  0.67680312  0.00188207  0.86217420     0.06900
C1213       C  0.62509771  0.00318270  0.87150782    -0.03100
C1214       C  0.63144603  0.00349213  0.88714476    -0.07500
C1215       C  0.68853415  0.00299280  0.89395178     0.06000
C1216       C  0.74034606  0.00418714  0.88468016    -0.02500
Br1217     Br  0.82063209  0.00207200  0.89264781    -0.02200
H1218       H  0.77437397  0.00248441  0.86205423     0.09900
H1219       H  0.59111856  0.00413148  0.89408044     0.08000
Br1220     Br  0.54439372  0.00809548  0.86388825    -0.02700
C1221       C  0.43124506  0.94069806  0.82558963    -0.09300
C1222       C  0.40117339  0.99606997  0.82602153     0.06900
C1223       C  0.43560182  0.04997914  0.82577100    -0.03100
C1224       C  0.49895049  0.04713813  0.82545278    -0.07500
C1225       C  0.52885659  0.99124426  0.82518779     0.06000
C1226       C  0.49397282  0.93800462  0.82476256    -0.02500
Br1227     Br  0.52841816  0.86056382  0.82148834    -0.02200
H1228       H  0.40569338  0.89881988  0.82560288     0.09900
H1229       H  0.52500658  0.08877535  0.82577913     0.08000
Br1230     Br  0.39908012  0.12821798  0.82695236    -0.02700
C1231       C  0.21083914  0.57159525  0.86830330    -0.09300
C1232       C  0.26406328  0.55729870  0.86051680     0.06900
C1233       C  0.31445694  0.53710840  0.86858036    -0.03100
C1234       C  0.31330300  0.53826141  0.88423446    -0.07500
C1235       C  0.26295563  0.56011636  0.89195813     0.06000
C1236       C  0.20991157  0.57308401  0.88399651    -0.02500
Br1237     Br  0.13610920  0.59438194  0.89397529    -0.02200
H1238       H  0.17052982  0.58348463  0.86216792     0.09900
H1239       H  0.35203075  0.52246341  0.89043972     0.08000
Br1240     Br  0.38406979  0.50392225  0.85893169    -0.02700
C1241       C  0.29797694  0.75025169  0.81670350    -0.09300
C1242       C  0.26593993  0.71841186  0.82779239     0.06900
C1243       C  0.23227515  0.75061076  0.83858152    -0.03100
C1244       C  0.23287241  0.81377798  0.83851100    -0.07500
C1245       C  0.26441059  0.84544613  0.82735272     0.06000
C1246       C  0.29659011  0.81341615  0.81626664    -0.02500
Br1247     Br  0.33733940  0.85388766  0.80007164    -0.02200
H1248       H  0.32286895  0.72579559  0.80814915     0.09900
H1249       H  0.20697691  0.83827855  0.84687435     0.08000
Br1250     Br  0.18098165  0.71081411  0.85281475    -0.02700
C1251       C  0.74117296  0.56601559  0.86852760    -0.09300
C1252       C  0.68446030  0.56006886  0.86160955     0.06900
C1253       C  0.63280369  0.55230011  0.87064938    -0.03100
C1254       C  0.63788075  0.55483024  0.88626442    -0.07500
C1255       C  0.69361182  0.56573989  0.89317715     0.06000
C1256       C  0.74617928  0.56834925  0.88421006    -0.02500
Br1257     Br  0.82543925  0.57638285  0.89266324    -0.02200
H1258       H  0.78151975  0.57089876  0.86170249     0.09900
H1259       H  0.59819819  0.54678995  0.89305027     0.08000
Br1260     Br  0.55486560  0.53473797  0.86236859    -0.02700
C1261       C  0.68560951  0.74976980  0.81465033    -0.09300
C1262       C  0.68554052  0.71925343  0.82846786     0.06900
C1263       C  0.68260453  0.75358558  0.84187210    -0.03100
C1264       C  0.67990767  0.81676792  0.84120054    -0.07500
C1265       C  0.67954927  0.84698332  0.82737588     0.06000
C1266       C  0.68166564  0.81261254  0.81396807    -0.02500
Br1267     Br  0.67227427  0.84740336  0.79434671    -0.02200
H1268       H  0.68559905  0.72430254  0.80422707     0.09900
H1269       H  0.67851212  0.84251685  0.85157166     0.08000
Br1270     Br  0.68458572  0.71808052  0.86146780    -0.02700
C1271       C  0.50572450  0.52043164  0.82239977    -0.09300
C1272       C  0.53693184  0.57562686  0.82396098     0.06900
C1273       C  0.50314435  0.62929846  0.82439708    -0.03100
C1274       C  0.44017300  0.62731078  0.82429434    -0.07500
C1275       C  0.40892007  0.57239127  0.82326258     0.06000
C1276       C  0.44235851  0.51835782  0.82191974    -0.02500
Br1277     Br  0.40477797  0.44007774  0.82054015    -0.02200
H1278       H  0.53066374  0.47855137  0.82193170     0.09900
H1279       H  0.41536086  0.66927188  0.82480079     0.08000
Br1280     Br  0.53935700  0.70724393  0.82371019    -0.02700
loop_ 
_geom_bond_atom_site_label_1 
_geom_bond_atom_site_label_2 
_geom_bond_distance 
_geom_bond_site_symmetry_2 
_ccdc_geom_bond_type 
C1            C2   1.535       .  S
C1            C7   1.536       .  S
C1            C5   1.531       .  S
C1          C269   1.500       .  S
C2            H9   1.086       .  S
C2            C3   1.366       .  D
C3            C4   1.544       .  S
C3         C1262   1.491       .  S
C4            C8   1.546       .  S
C4            C6   1.544       .  S
C4           H10   1.108       .  S
C5           H11   1.087       .  S
C5            C6   1.365       .  D
C6         C1252   1.481       .  S
C7           H12   1.087       .  S
C7            C8   1.364       .  D
C8         C1272   1.494       .  S
C13          C14   1.530       .  S
C13          C19   1.537       .  S
C13          C17   1.535       .  S
C13         C295   1.494       .  S
C14          H21   1.086       .  S
C14          C15   1.360       .  D
C15          C16   1.539       .  S
C15        C1232   1.472       .  S
C16          C20   1.543       .  S
C16          C18   1.542       .  S
C16          H22   1.111       .  S
C17          H23   1.086       .  S
C17          C18   1.363       .  D
C18        C1242   1.477       .  S
C19          H24   1.085       .  S
C19          C20   1.365       .  D
C20        C1275   1.487       .  S
C25          C26   1.535       .  S
C25          C31   1.531   1_545  S
C25          C29   1.535       .  S
C25         C243   1.504       .  S
C26          H33   1.086       .  S
C26          C27   1.364   1_545  D
C27          C28   1.546       .  S
C27        C1225   1.489       .  S
C28          C32   1.544       .  S
C28          C30   1.548       .  S
C28          H34   1.109       .  S
C29          H35   1.086       .  S
C29          C30   1.372   1_545  D
C30        C1212   1.494   1_565  S
C31          H36   1.085       .  S
C31          C32   1.361       .  D
C32        C1265   1.487       .  S
C37          C38   1.537   1_545  S
C37          C43   1.540       .  S
C37          C41   1.541       .  S
C37         C217   1.507       .  S
C38          H45   1.086       .  S
C38          C39   1.362       .  D
C39          C40   1.532       .  S
C39        C1245   1.471       .  S
C40          C44   1.536       .  S
C40          C42   1.534       .  S
C40          H46   1.112       .  S
C41          H47   1.086       .  S
C41          C42   1.369   1_545  D
C42        C1205   1.479       .  S
C43          H48   1.086       .  S
C43          C44   1.367   1_545  D
C44        C1222   1.485       .  S
C49          C50   1.540       .  S
C49          C55   1.539       .  S
C49          C53   1.532       .  S
C49         C443   1.503       .  S
C50          H57   1.084       .  S
C50          C51   1.371       .  D
C51          C52   1.544       .  S
C51        C1192   1.495       .  S
C52          C56   1.531       .  S
C52          C54   1.543       .  S
C52          H58   1.109       .  S
C53          H59   1.087       .  S
C53          C54   1.362       .  D
C54        C1255   1.481       .  S
C55          H60   1.086       .  S
C55          C56   1.363       .  D
C56        C1182   1.478       .  S
C61          C62   1.527       .  S
C61          C67   1.534       .  S
C61          C65   1.538       .  S
C61         C493   1.508       .  S
C62          H69   1.086       .  S
C62          C63   1.360       .  D
C63          C64   1.544       .  S
C63        C1235   1.468       .  S
C64          C68   1.538       .  S
C64          C66   1.544       .  S
C64          H70   1.098       .  S
C65          H71   1.085       .  S
C65          C66   1.378       .  D
C66        C1195   1.507       .  S
C67          H72   1.086       .  S
C67          C68   1.367       .  D
C68        C1172   1.492       .  S
C73          C74   1.535   1_545  S
C73          C79   1.532       .  S
C73          C77   1.545       .  S
C73         C402   1.505       .  S
C74          H81   1.087       .  S
C74          C75   1.362       .  D
C75          C76   1.534       .  S
C75        C1185   1.476       .  S
C76          C80   1.535       .  S
C76          C78   1.539       .  S
C76          H82   1.111       .  S
C77          H83   1.086       .  S
C77          C78   1.374   1_545  D
C78        C1215   1.491   1_565  S
C79          H84   1.086       .  S
C79          C80   1.361   1_545  D
C80        C1162   1.474       .  S
C85          C86   1.539       .  S
C85          C91   1.536   1_545  S
C85          C89   1.535       .  S
C85         C467   1.507       .  S
C86          H93   1.086       .  S
C86          C87   1.366   1_545  D
C87          C88   1.537       .  S
C87        C1165   1.482       .  S
C88          C92   1.540       .  S
C88          C90   1.539       .  S
C88          H94   1.111       .  S
C89          H95   1.086       .  S
C89          C90   1.366   1_545  D
C90        C1202   1.479   1_565  S
C91          H96   1.085       .  S
C91          C92   1.366       .  D
C92        C1175   1.485       .  S
O97         C100   1.264       .  A
O97        Cd102   2.466   1_545  S
C98         O107   1.263       .  A
C98         O103   1.265       .  A
C98         C150   1.460       .  S
O99         C105   1.268   1_565  A
O99        Cd102   2.495       .  S
C100        C529   1.508       .  S
C100        O108   1.269       .  A
C101        O106   1.268       .  A
C101        O104   1.262       .  A
C101        C127   1.475       .  S
Cd102       O109   2.471   1_565  S
Cd102       O108   2.476   1_565  S
Cd102       O107   2.428       .  S
Cd102       O103   2.482       .  S
Cd102       O106   2.533       .  S
Cd102       O104   2.451       .  S
C105        O109   1.263       .  A
C105        C118   1.471       .  S
O110        C113   1.265       .  A
O110       Cd115   2.470       .  S
C111        O120   1.262       .  A
C111        O116   1.265       .  A
C111        C163   1.461       .  S
O112        C118   1.267       .  A
O112       Cd115   2.486       .  S
C113        C365   1.508       .  S
C113        O121   1.268       .  A
C114        O119   1.267       .  A
C114        O117   1.263       .  A
C114        C144   1.470       .  S
Cd115       O122   2.475       .  S
Cd115       O121   2.469       .  S
Cd115       O120   2.440       .  S
Cd115       O116   2.478       .  S
Cd115       O119   2.515       .  S
Cd115       O117   2.449       .  S
C118        O122   1.264       .  A
O123        C126   1.265       .  A
O123       Cd128   2.471       .  S
C124        C541   1.501       .  S
C124        O133   1.268       .  A
C124        O129   1.263       .  A
O125        C131   1.267       .  A
O125       Cd128   2.469       .  S
C126        O134   1.262       .  A
C126        C176   1.455       .  S
C127        O132   1.267       .  A
C127        O130   1.264       .  A
Cd128       O135   2.464       .  S
Cd128       O134   2.413       .  S
Cd128       O133   2.426       .  S
Cd128       O129   2.469       .  S
Cd128       O132   2.522       .  S
Cd128       O130   2.456       .  S
C131        O135   1.263       .  A
C131        C140   1.464       .  S
O136        C139   1.266       .  A
O136       Cd141   2.449       .  S
C137        O146   1.263       .  A
C137        O142   1.265       .  A
C137        C189   1.462       .  S
O138        C144   1.267       .  A
O138       Cd141   2.513       .  S
C139        C353   1.499       .  S
C139        O147   1.267       .  A
C140        O145   1.267       .  A
C140        O143   1.263       .  A
Cd141       O148   2.442       .  S
Cd141       O147   2.446       .  S
Cd141       O146   2.431       .  S
Cd141       O142   2.486       .  S
Cd141       O145   2.468       .  S
Cd141       O143   2.451       .  S
C144        O148   1.262       .  A
O149        C152   1.266       .  A
O149       Cd154   2.458   1_545  S
C150        O159   1.260       .  A
C150        O155   1.266       .  A
O151        C157   1.264       .  A
O151       Cd154   2.491       .  S
C152        C505   1.501       .  S
C152        O160   1.267       .  A
C153        O158   1.264   1_545  A
C153        O156   1.264       .  A
C153        C166   1.456       .  S
Cd154       O161   2.453       .  S
Cd154       O160   2.439   1_565  S
Cd154       O159   2.426       .  S
Cd154       O155   2.494       .  S
Cd154       O158   2.424       .  S
Cd154       O156   2.466   1_565  S
C157        O161   1.263       .  A
C157        C179   1.465       .  S
O162        C165   1.264       .  A
O162       Cd167   2.453       .  S
C163        O172   1.265       .  A
C163        O168   1.267       .  A
O164        C170   1.267       .  A
O164       Cd167   2.506       .  S
C165        C389   1.500       .  S
C165        O173   1.266       .  A
C166        O171   1.268       .  A
C166        O169   1.262       .  A
Cd167       O174   2.439       .  S
Cd167       O173   2.458       .  S
Cd167       O172   2.436       .  S
Cd167       O168   2.470       .  S
Cd167       O171   2.474       .  S
Cd167       O169   2.411       .  S
C170        O174   1.264       .  A
C170        C192   1.470       .  S
O175        C178   1.265       .  A
O175       Cd180   2.436       .  S
C176        O185   1.262       .  A
C176        O181   1.264       .  A
O177        C183   1.267       .  A
O177       Cd180   2.486       .  S
C178        C517   1.496       .  S
C178        O186   1.269       .  A
C179        O184   1.267       .  A
C179        O182   1.263       .  A
Cd180       O187   2.452       .  S
Cd180       O186   2.428       .  S
Cd180       O185   2.416       .  S
Cd180       O181   2.471       .  S
Cd180       O184   2.486       .  S
Cd180       O182   2.440       .  S
C183        O187   1.263       .  A
C183        C196   1.466       .  S
O188        C191   1.264       .  A
O188       Cd193   2.451       .  S
C189        O198   1.262       .  A
C189        O194   1.265       .  A
O190        C196   1.267       .  A
O190       Cd193   2.469       .  S
C191        C377   1.504       .  S
C191        O199   1.268       .  A
C192        O197   1.267       .  A
C192        O195   1.262       .  A
Cd193       O200   2.467       .  S
Cd193       O199   2.471       .  S
Cd193       O198   2.439       .  S
Cd193       O194   2.489       .  S
Cd193       O197   2.520       .  S
Cd193       O195   2.445       .  S
C196        O200   1.264       .  A
O201        C204   1.265       .  A
O201       Cd206   2.450       .  S
C202        O211   1.263       .  A
C202        O207   1.264       .  A
C202        C282   1.460       .  S
O203        C209   1.267       .  A
O203       Cd206   2.481       .  S
C204        C341   1.501       .  S
C204        O212   1.268       .  A
C205        O210   1.267       .  A
C205        O208   1.264       .  A
C205        C231   1.474       .  S
Cd206       O213   2.462       .  S
Cd206       O212   2.450       .  S
Cd206       O211   2.439       .  S
Cd206       O207   2.470       .  S
Cd206       O210   2.505       .  S
Cd206       O208   2.471       .  S
C209        O213   1.263       .  A
C209        C222   1.467       .  S
O214        C217   1.265       .  A
O214       Cd219   2.463       .  S
C215        O224   1.261       .  A
C215        O220   1.266       .  A
C215        C293   1.462       .  S
O216        C222   1.267       .  A
O216       Cd219   2.478       .  S
C217        O225   1.269       .  A
C218        O223   1.267   1_655  A
C218        O221   1.264   1_655  A
C218        C248   1.476       .  S
Cd219       O226   2.467       .  S
Cd219       O225   2.476       .  S
Cd219       O224   2.431       .  S
Cd219       O220   2.491       .  S
Cd219       O223   2.524       .  S
Cd219       O221   2.465       .  S
C222        O226   1.263       .  A
O227        C230   1.264       .  A
O227       Cd232   2.497       .  S
C228        C329   1.506       .  S
C228        O237   1.268       .  A
C228        O233   1.264       .  A
O229        C235   1.266       .  A
O229       Cd232   2.490       .  S
C230        O238   1.263       .  A
C230        C254   1.467       .  S
C231        O236   1.265       .  A
C231        O234   1.264       .  A
Cd232       O239   2.483       .  S
Cd232       O238   2.459       .  S
Cd232       O237   2.479       .  S
Cd232       O233   2.458       .  S
Cd232       O236   2.509       .  S
Cd232       O234   2.481       .  S
C235        O239   1.264       .  A
C235        C244   1.473       .  S
O240        C243   1.264       .  A
O240       Cd245   2.469       .  S
C241        O250   1.263       .  A
C241        O246   1.265       .  A
C241        C267   1.458       .  S
O242        C248   1.268       .  A
O242       Cd245   2.519       .  S
C243        O251   1.268       .  A
C244        O249   1.266       .  A
C244        O247   1.263       .  A
Cd245       O252   2.458       .  S
Cd245       O251   2.446       .  S
Cd245       O250   2.425       .  S
Cd245       O246   2.476       .  S
Cd245       O249   2.496       .  S
Cd245       O247   2.482       .  S
C248        O252   1.264       .  A
O253        C256   1.264       .  A
O253       Cd258   2.465       .  S
C254        O263   1.263       .  A
C254        O259   1.267       .  A
O255        C261   1.268       .  A
O255       Cd258   2.482       .  S
C256        C305   1.509       .  S
C256        O264   1.267       .  A
C257        O262   1.268       .  A
C257        O260   1.264       .  A
C257        C283   1.476       .  S
Cd258       O265   2.429       .  S
Cd258       O264   2.495       .  S
Cd258       O263   2.448       .  S
Cd258       O259   2.492       .  S
Cd258       O262   2.518       .  S
Cd258       O260   2.463       .  S
C261        O265   1.262       .  A
C261        C274   1.462       .  S
O266        C269   1.266       .  A
O266       Cd271   2.441       .  S
C267        O276   1.261       .  A
C267        O272   1.264       .  A
O268        C274   1.264       .  A
O268       Cd271   2.453       .  S
C269        O277   1.269       .  A
C270        O275   1.266       .  A
C270        O273   1.263       .  A
C270        C300   1.466   1_655  S
Cd271       O278   2.475       .  S
Cd271       O277   2.443       .  S
Cd271       O276   2.428       .  S
Cd271       O272   2.478       .  S
Cd271       O275   2.491       .  S
Cd271       O273   2.446       .  S
C274        O278   1.263       .  A
O279        C282   1.265       .  A
O279       Cd284   2.475       .  S
C280        C317   1.506       .  S
C280        O289   1.269       .  A
C280        O285   1.265       .  A
O281        C287   1.266       .  A
O281       Cd284   2.466       .  S
C282        O290   1.262       .  A
C283        O288   1.267       .  A
C283        O286   1.264       .  A
Cd284       O291   2.476       .  S
Cd284       O290   2.437       .  S
Cd284       O289   2.460       .  S
Cd284       O285   2.464       .  S
Cd284       O288   2.520       .  S
Cd284       O286   2.465       .  S
C287        O291   1.263       .  A
C287        C296   1.466       .  S
O292        C295   1.264       .  A
O292       Cd297   2.425       .  S
C293        O302   1.263       .  A
C293        O298   1.265       .  A
O294        C300   1.266       .  A
O294       Cd297   2.490       .  S
C295        O303   1.266       .  A
C296        O301   1.267       .  A
C296        O299   1.263       .  A
Cd297       O304   2.452       .  S
Cd297       O303   2.461       .  S
Cd297       O302   2.437       .  S
Cd297       O298   2.491       .  S
Cd297       O301   2.482       .  S
Cd297       O299   2.452       .  S
C300        O304   1.263       .  A
C305        C306   1.538       .  S
C305        C311   1.541       .  S
C305        C309   1.532       .  S
C306        H313   1.085       .  S
C306        C307   1.370       .  D
C307        C308   1.541       .  S
C307       C1142   1.485       .  S
C308        C312   1.537       .  S
C308        C310   1.538       .  S
C308        H314   1.111       .  S
C309        H315   1.086       .  S
C309        C310   1.361       .  D
C310       C1132   1.474       .  S
C311        H316   1.086       .  S
C311        C312   1.369       .  D
C312       C1152   1.485       .  S
C317        C318   1.539       .  S
C317        C323   1.538       .  S
C317        C321   1.537       .  S
C318        H325   1.086       .  S
C318        C319   1.364       .  D
C319        C320   1.538       .  S
C319       C1112   1.477       .  S
C320        C324   1.540       .  S
C320        C322   1.540       .  S
C320        H326   1.111       .  S
C321        H327   1.084       .  S
C321        C322   1.365       .  D
C322       C1122   1.486       .  S
C323        H328   1.086       .  S
C323        C324   1.366       .  D
C324       C1155   1.485       .  S
C329        C330   1.538       .  S
C329        C335   1.534   1_545  S
C329        C333   1.528       .  S
C330        H337   1.086       .  S
C330        C331   1.372       .  D
C331        C332   1.542   1_545  S
C331       C1102   1.499       .  S
C332        C336   1.542       .  S
C332        C334   1.547   1_565  S
C332        H338   1.104       .  S
C333        H339   1.086       .  S
C333        C334   1.360       .  D
C334       C1092   1.470       .  S
C335        H340   1.086       .  S
C335        C336   1.369       .  D
C336       C1145   1.493       .  S
C341        C342   1.533   1_545  S
C341        C347   1.535       .  S
C341        C345   1.531       .  S
C342        H349   1.086       .  S
C342        C343   1.367       .  D
C343        C344   1.542       .  S
C343       C1125   1.490       .  S
C344        C348   1.545   1_565  S
C344        C346   1.539   1_565  S
C344        H350   1.109       .  S
C345        H351   1.086       .  S
C345        C346   1.361       .  D
C346       C1085   1.476       .  S
C347        H352   1.085       .  S
C347        C348   1.369       .  D
C348       C1105   1.487       .  S
C353        C354   1.522       .  S
C353        C359   1.541       .  S
C353        C357   1.535       .  S
C354        H361   1.087       .  S
C354        C355   1.354       .  D
C355        C356   1.550       .  S
C355       C1115   1.472       .  S
C356        C360   1.546       .  S
C356        C358   1.540       .  S
C356        H362   1.099       .  S
C357        H363   1.086       .  S
C357        C358   1.367       .  D
C358       C1062   1.490       .  S
C359        H364   1.086       .  S
C359        C360   1.375       .  D
C360       C1072   1.507       .  S
C365        C366   1.536       .  S
C365        C371   1.542   1_545  S
C365        C369   1.539       .  S
C366        H373   1.086       .  S
C366        C367   1.365       .  D
C367        C368   1.533   1_545  S
C367       C1052   1.480       .  S
C368        C372   1.540       .  S
C368        C370   1.542   1_565  S
C368        H374   1.108       .  S
C369        H375   1.086       .  S
C369        C370   1.367       .  D
C370       C1082   1.483       .  S
C371        H376   1.085       .  S
C371        C372   1.369       .  D
C372       C1075   1.496       .  S
C377        C378   1.537       .  S
C377        C383   1.538       .  S
C377        C381   1.534       .  S
C378        H385   1.085       .  S
C378        C379   1.367       .  D
C379        C380   1.537       .  S
C379       C1065   1.485       .  S
C380        C384   1.542       .  S
C380        C382   1.544       .  S
C380        H386   1.108       .  S
C381        H387   1.086       .  S
C381        C382   1.363       .  D
C382       C1135   1.477       .  S
C383        H388   1.086       .  S
C383        C384   1.367       .  D
C384       C1042   1.494       .  S
C389        C390   1.542   1_545  S
C389        C395   1.536       .  S
C389        C393   1.530       .  S
C390        H397   1.085       .  S
C390        C391   1.372       .  D
C391        C392   1.542       .  S
C391       C1045   1.493       .  S
C392        C396   1.535   1_565  S
C392        C394   1.539   1_565  S
C392        H398   1.110       .  S
C393        H399   1.086       .  S
C393        C394   1.358       .  D
C394       C1095   1.472       .  S
C395        H400   1.086       .  S
C395        C396   1.364       .  D
C396       C1055   1.478       .  S
O401        C404   1.264       .  A
O401       Cd406   2.472       .  S
C402        O411   1.269       .  A
C402        O407   1.263       .  A
O403        C409   1.267       .  A
O403       Cd406   2.506       .  S
C404        O412   1.263       .  A
C404        C469   1.461   1_655  S
C405        O410   1.267       .  A
C405        O408   1.262       .  A
C405        C444   1.472       .  S
Cd406       O413   2.468       .  S
Cd406       O412   2.440       .  S
Cd406       O411   2.457       .  S
Cd406       O407   2.459       .  S
Cd406       O410   2.516       .  S
Cd406       O408   2.459       .  S
C409        O413   1.263       .  A
C409        C422   1.473   1_556  S
O414        C417   1.265       .  A
O414       Cd419   2.486       .  S
C415        C753   1.508       .  S
C415        O424   1.269   1_545  A
C415        O420   1.265       .  A
O416        C422   1.266   1_565  A
O416       Cd419   2.484       .  S
C417        O425   1.262       .  A
C417        C454   1.463   1_655  S
C418        O423   1.267       .  A
C418        O421   1.263       .  A
C418        C431   1.474       .  S
Cd419       O426   2.492   1_565  S
Cd419       O425   2.449       .  S
Cd419       O424   2.469       .  S
Cd419       O420   2.468   1_565  S
Cd419       O423   2.523       .  S
Cd419       O421   2.455       .  S
C422        O426   1.264       .  A
O427        C430   1.265       .  A
O427       Cd432   2.468       .  S
C428        O437   1.261       .  A
C428        O433   1.265       .  A
C428        C480   1.464   1_655  S
O429        C435   1.264       .  A
O429       Cd432   2.462       .  S
C430        C765   1.507       .  S
C430        O438   1.269       .  A
C431        O436   1.267       .  A
C431        O434   1.263       .  A
Cd432       O439   2.468       .  S
Cd432       O438   2.463       .  S
Cd432       O437   2.438       .  S
Cd432       O433   2.494       .  S
Cd432       O436   2.520       .  S
Cd432       O434   2.454       .  S
C435        O439   1.264       .  A
C435        C448   1.463   1_554  S
O440        C443   1.264       .  A
O440       Cd445   2.448       .  S
C441        O450   1.263       .  A
C441        O446   1.265       .  A
C441        C495   1.468   1_655  S
O442        C448   1.265       .  A
O442       Cd445   2.469       .  S
C443        O451   1.267       .  A
C444        O449   1.265       .  A
C444        O447   1.265       .  A
Cd445       O452   2.457       .  S
Cd445       O451   2.481       .  S
Cd445       O450   2.451       .  S
Cd445       O446   2.502       .  S
Cd445       O449   2.500       .  S
Cd445       O447   2.465       .  S
C448        O452   1.264       .  A
O453        C456   1.265       .  A
O453       Cd458   2.479   1_545  S
C454        O463   1.262       .  A
C454        O459   1.265       .  A
O455        C461   1.268   1_565  A
O455       Cd458   2.507       .  S
C456        C777   1.510       .  S
C456        O464   1.269   1_545  A
C457        O462   1.267       .  A
C457        O460   1.264       .  A
C457        C487   1.475       .  S
Cd458       O465   2.458   1_565  S
Cd458       O464   2.468       .  S
Cd458       O463   2.447       .  S
Cd458       O459   2.483       .  S
Cd458       O462   2.513       .  S
Cd458       O460   2.474       .  S
C461        O465   1.263       .  A
C461        C470   1.471   1_554  S
O466        C469   1.265       .  A
O466       Cd471   2.490       .  S
C467        O476   1.269       .  A
C467        O472   1.267       .  A
O468        C474   1.267       .  A
O468       Cd471   2.517       .  S
C469        O477   1.261       .  A
C470        O475   1.266       .  A
C470        O473   1.264       .  A
Cd471       O478   2.472       .  S
Cd471       O477   2.438       .  S
Cd471       O476   2.461       .  S
Cd471       O472   2.466       .  S
Cd471       O475   2.472       .  S
Cd471       O473   2.491       .  S
C474        O478   1.263       .  A
C474        C496   1.476       .  S
O479        C482   1.265       .  A
O479       Cd484   2.487       .  S
C480        O489   1.261       .  A
C480        O485   1.264       .  A
O481        C487   1.265       .  A
O481       Cd484   2.511       .  S
C482        C789   1.510       .  S
C482        O490   1.269       .  A
C483        O488   1.264       .  A
C483        O486   1.266       .  A
C483        C500   1.473   1_554  S
Cd484       O491   2.478       .  S
Cd484       O490   2.463       .  S
Cd484       O489   2.448       .  S
Cd484       O485   2.503       .  S
Cd484       O488   2.477       .  S
Cd484       O486   2.502       .  S
C487        O491   1.263       .  A
O492        C495   1.265       .  A
O492       Cd497   2.503       .  S
C493        O502   1.267       .  A
C493        O498   1.263       .  A
O494        C500   1.266       .  A
O494       Cd497   2.497       .  S
C495        O503   1.263       .  A
C496        O501   1.266       .  A
C496        O499   1.263       .  A
Cd497       O504   2.472       .  S
Cd497       O503   2.449       .  S
Cd497       O502   2.508       .  S
Cd497       O498   2.455       .  S
Cd497       O501   2.515       .  S
Cd497       O499   2.471       .  S
C500        O504   1.264       .  A
C505        C506   1.534       .  S
C505        C511   1.537       .  S
C505        C509   1.537       .  S
C506        H513   1.087       .  S
C506        C507   1.367       .  D
C507        C508   1.537       .  S
C507       C1012   1.478       .  S
C508        C512   1.538       .  S
C508        C510   1.532       .  S
C508        H514   1.111       .  S
C509        H515   1.086       .  S
C509        C510   1.363       .  D
C510       C1022   1.477       .  S
C511        H516   1.086       .  S
C511        C512   1.366       .  D
C512       C1032   1.482       .  S
C517        C518   1.532       .  S
C517        C523   1.537       .  S
C517        C521   1.536       .  S
C518        H525   1.086       .  S
C518        C519   1.358       .  D
C519        C520   1.537       .  S
C519       C1002   1.469       .  S
C520        C524   1.541       .  S
C520        C522   1.541       .  S
C520        H526   1.111       .  S
C521        H527   1.086       .  S
C521        C522   1.367       .  D
C522        C992   1.482       .  S
C523        H528   1.086       .  S
C523        C524   1.366       .  D
C524       C1035   1.487       .  S
C529        C530   1.533       .  S
C529        C535   1.537       .  S
C529        C533   1.535       .  S
C530        H537   1.086       .  S
C530        C531   1.363       .  D
C531        C532   1.542       .  S
C531       C1025   1.482       .  S
C532        C536   1.543       .  S
C532        C534   1.545       .  S
C532        H538   1.110       .  S
C533        H539   1.086       .  S
C533        C534   1.370       .  D
C534        C972   1.489       .  S
C535        H540   1.086       .  S
C535        C536   1.367       .  D
C536        C982   1.489       .  S
C541        C542   1.542       .  S
C541        C547   1.541       .  S
C541        C545   1.530       .  S
C542        H549   1.086       .  S
C542        C543   1.371       .  D
C543        C544   1.537       .  S
C543        C962   1.486       .  S
C544        C548   1.534       .  S
C544        C546   1.530       .  S
C544        H550   1.111       .  S
C545        H551   1.086       .  S
C545        C546   1.354       .  D
C546       C1005   1.461       .  S
C547        H552   1.086       .  S
C547        C548   1.368       .  D
C548        C985   1.486       .  S
C553        C554   1.535       .  S
C553        C559   1.540       .  S
C553        C557   1.541       .  S
C553        C617   1.506       .  S
C554        H561   1.086       .  S
C554        C555   1.361       .  D
C555        C556   1.532       .  S
C555        C955   1.472       .  S
C556        C560   1.533       .  S
C556        C558   1.538       .  S
C556        H562   1.112       .  S
C557        H563   1.085       .  S
C557        C558   1.371       .  D
C558        C975   1.484       .  S
C559        H564   1.086       .  S
C559        C560   1.365       .  D
C560        C942   1.476       .  S
C565        C566   1.533       .  S
C565        C571   1.536       .  S
C565        C569   1.537       .  S
C565        C630   1.496       .  S
C566        H573   1.086       .  S
C566        C567   1.361       .  D
C567        C568   1.532       .  S
C567        C945   1.468       .  S
C568        C572   1.533       .  S
C568        C570   1.534       .  S
C568        H574   1.112       .  S
C569        H575   1.086       .  S
C569        C570   1.367       .  D
C570       C1015   1.474       .  S
C571        H576   1.085       .  S
C571        C572   1.363       .  D
C572        C935   1.475       .  S
C577        C578   1.533       .  S
C577        C583   1.536       .  S
C577        C581   1.536       .  S
C577        C682   1.505       .  S
C578        H585   1.086       .  S
C578        C579   1.359       .  D
C579        C580   1.542       .  S
C579        C932   1.483       .  S
C580        C584   1.549       .  S
C580        C582   1.547       .  S
C580        H586   1.108       .  S
C581        H587   1.087       .  S
C581        C582   1.369       .  D
C582        C995   1.489       .  S
C583        H588   1.087       .  S
C583        C584   1.369       .  D
C584        C922   1.498       .  S
C589        C590   1.537       .  S
C589        C595   1.537       .  S
C589        C593   1.537       .  S
C589        C656   1.505       .  S
C590        H597   1.086       .  S
C590        C591   1.369       .  D
C591        C592   1.544       .  S
C591        C965   1.489       .  S
C592        C596   1.540       .  S
C592        C594   1.538       .  S
C592        H598   1.110       .  S
C593        H599   1.086       .  S
C593        C594   1.362       .  D
C594        C952   1.480       .  S
C595        H600   1.085       .  S
C595        C596   1.366       .  D
C596        C925   1.488       .  S
O601        C604   1.264   1_565  A
O601       Cd606   2.503       .  S
C602        O611   1.261       .  A
C602        O607   1.265       .  A
C602        C667   1.453       .  S
O603        C609   1.266       .  A
O603       Cd606   2.470       .  S
C604        C717   1.513       .  S
C604        O612   1.270       .  A
C605        O610   1.267   1_565  A
C605        O608   1.264       .  A
C605        C644   1.475   1_455  S
Cd606       O613   2.461       .  S
Cd606       O612   2.436   1_565  S
Cd606       O611   2.417       .  S
Cd606       O607   2.461       .  S
Cd606       O610   2.521   1_565  S
Cd606       O608   2.461       .  S
C609        O613   1.263       .  A
C609        C622   1.463       .  S
O614        C617   1.265   1_565  A
O614       Cd619   2.467       .  S
C615        O624   1.262       .  A
C615        O620   1.264       .  A
C615        C654   1.462       .  S
O616        C622   1.265       .  A
O616       Cd619   2.473       .  S
C617        O625   1.269       .  A
C618        O623   1.266   1_565  A
C618        O621   1.263       .  A
C618        C635   1.469       .  S
Cd619       O626   2.460       .  S
Cd619       O625   2.455   1_565  S
Cd619       O624   2.451       .  S
Cd619       O620   2.478       .  S
Cd619       O623   2.501   1_565  S
Cd619       O621   2.454       .  S
C622        O626   1.263       .  A
O627        C630   1.265   1_565  A
O627       Cd632   2.450       .  S
C628        O637   1.262       .  A
C628        O633   1.264       .  A
C628        C680   1.460       .  S
O629        C635   1.266   1_545  A
O629       Cd632   2.496   1_545  S
C630        O638   1.267       .  A
C631        O636   1.266       .  A
C631        O634   1.263       .  A
C631        C648   1.463       .  S
Cd632       O639   2.457       .  S
Cd632       O638   2.429   1_565  S
Cd632       O637   2.441       .  S
Cd632       O633   2.474       .  S
Cd632       O636   2.460       .  S
Cd632       O634   2.459       .  S
C635        O639   1.264       .  A
O640        C643   1.265       .  A
O640       Cd645   2.476       .  S
C641        C729   1.501       .  S
C641        O650   1.267       .  A
C641        O646   1.265   1_545  A
O642        C648   1.268       .  A
O642       Cd645   2.476       .  S
C643        O651   1.263       .  A
C643        C693   1.460       .  S
C644        O649   1.268   1_565  A
C644        O647   1.263       .  A
Cd645       O652   2.446       .  S
Cd645       O651   2.441       .  S
Cd645       O650   2.457   1_565  S
Cd645       O646   2.449       .  S
Cd645       O649   2.523   1_565  S
Cd645       O647   2.458       .  S
C648        O652   1.263       .  A
O653        C656   1.266       .  A
O653       Cd658   2.458       .  S
C654        O663   1.262       .  A
C654        O659   1.266       .  A
O655        C661   1.267       .  A
O655       Cd658   2.505       .  S
C656        O664   1.268       .  A
C657        O662   1.266       .  A
C657        O660   1.263       .  A
C657        C670   1.463       .  S
Cd658       O665   2.444       .  S
Cd658       O664   2.456       .  S
Cd658       O663   2.446       .  S
Cd658       O659   2.478       .  S
Cd658       O662   2.468       .  S
Cd658       O660   2.460       .  S
C661        O665   1.263       .  A
C661        C683   1.469       .  S
O666        C669   1.264       .  A
O666       Cd671   2.467       .  S
C667        O676   1.263       .  A
C667        O672   1.264       .  A
O668        C674   1.266       .  A
O668       Cd671   2.506       .  S
C669        C705   1.498       .  S
C669        O677   1.267       .  A
C670        O675   1.267       .  A
C670        O673   1.263       .  A
Cd671       O678   2.461       .  S
Cd671       O677   2.402       .  S
Cd671       O676   2.419       .  S
Cd671       O672   2.458       .  S
Cd671       O675   2.470       .  S
Cd671       O673   2.448       .  S
C674        O678   1.263       .  A
C674        C696   1.471   1_455  S
O679        C682   1.265       .  A
O679       Cd684   2.470       .  S
C680        O689   1.263       .  A
C680        O685   1.265       .  A
O681        C687   1.266       .  A
O681       Cd684   2.482       .  S
C682        O690   1.268       .  A
C683        O688   1.267       .  A
C683        O686   1.262       .  A
Cd684       O691   2.469       .  S
Cd684       O690   2.445       .  S
Cd684       O689   2.439       .  S
Cd684       O685   2.470       .  S
Cd684       O688   2.508       .  S
Cd684       O686   2.445       .  S
C687        O691   1.263       .  A
C687        C700   1.469       .  S
O692        C695   1.264       .  A
O692       Cd697   2.453       .  S
C693        O702   1.263       .  A
C693        O698   1.265       .  A
O694        C700   1.266       .  A
O694       Cd697   2.486       .  S
C695        C741   1.504       .  S
C695        O703   1.269       .  A
C696        O701   1.267       .  A
C696        O699   1.262       .  A
Cd697       O704   2.474       .  S
Cd697       O703   2.458       .  S
Cd697       O702   2.438       .  S
Cd697       O698   2.472       .  S
Cd697       O701   2.513       .  S
Cd697       O699   2.453       .  S
C700        O704   1.263       .  A
C705        C706   1.544       .  S
C705        C711   1.528       .  S
C705        C709   1.535       .  S
C706        H713   1.086       .  S
C706        C707   1.372       .  D
C707        C708   1.540       .  S
C707        C912   1.493       .  S
C708        C712   1.538       .  S
C708        C710   1.541       .  S
C708        H714   1.110       .  S
C709        H715   1.085       .  S
C709        C710   1.369       .  D
C710        C892   1.487       .  S
C711        H716   1.087       .  S
C711        C712   1.349       .  D
C712        C902   1.459       .  S
C717        C718   1.522       .  S
C717        C723   1.543       .  S
C717        C721   1.543       .  S
C718        H725   1.087       .  S
C718        C719   1.347       .  D
C719        C720   1.540       .  S
C719        C905   1.456       .  S
C720        C724   1.541       .  S
C720        C722   1.543       .  S
C720        H726   1.104       .  S
C721        H727   1.086       .  S
C721        C722   1.380       .  D
C722        C875   1.502       .  S
C723        H728   1.086       .  S
C723        C724   1.371       .  D
C724        C885   1.498       .  S
C729        C730   1.534       .  S
C729        C735   1.535       .  S
C729        C733   1.539       .  S
C730        H737   1.086       .  S
C730        C731   1.363       .  D
C731        C732   1.539       .  S
C731        C852   1.486       .  S
C732        C736   1.545       .  S
C732        C734   1.542       .  S
C732        H738   1.109       .  S
C733        H739   1.084       .  S
C733        C734   1.367       .  D
C734        C862   1.487       .  S
C735        H740   1.086       .  S
C735        C736   1.366       .  D
C736        C882   1.494       .  S
C741        C742   1.538       .  S
C741        C747   1.532       .  S
C741        C745   1.540       .  S
C742        H749   1.085       .  S
C742        C743   1.373       .  D
C743        C744   1.544       .  S
C743        C865   1.508       .  S
C744        C748   1.542       .  S
C744        C746   1.533       .  S
C744        H750   1.097       .  S
C745        H751   1.086       .  S
C745        C746   1.368       .  D
C746        C842   1.480       .  S
C747        H752   1.086       .  S
C747        C748   1.359       .  D
C748        C915   1.479       .  S
C753        C754   1.539       .  S
C753        C759   1.539       .  S
C753        C757   1.533       .  S
C754        H761   1.086   1_545  S
C754        C755   1.370       .  D
C755        C756   1.538       .  S
C755        C855   1.481       .  S
C756        C760   1.533       .  S
C756        C758   1.534       .  S
C756        H762   1.108       .  S
C757        H763   1.086   1_545  S
C757        C758   1.366       .  D
C758        C822   1.482       .  S
C759        H764   1.086       .  S
C759        C760   1.365       .  D
C760        C832   1.487       .  S
C765        C766   1.533       .  S
C765        C771   1.538       .  S
C765        C769   1.533       .  S
C766        H773   1.086       .  S
C766        C767   1.364       .  D
C767        C768   1.540       .  S
C767        C815   1.481       .  S
C768        C772   1.544       .  S
C768        C770   1.543       .  S
C768        H774   1.109       .  S
C769        H775   1.086       .  S
C769        C770   1.365       .  D
C770        C845   1.483       .  S
C771        H776   1.086       .  S
C771        C772   1.370       .  D
C772        C835   1.493       .  S
C777        C778   1.536       .  S
C777        C783   1.541       .  S
C777        C781   1.541       .  S
C778        H785   1.085       .  S
C778        C779   1.363       .  D
C779        C780   1.530       .  S
C779        C825   1.475       .  S
C780        C784   1.531       .  S
C780        C782   1.536       .  S
C780        H786   1.110       .  S
C781        H787   1.086       .  S
C781        C782   1.372       .  D
C782        C872   1.485       .  S
C783        H788   1.086       .  S
C783        C784   1.366       .  D
C784        C802   1.482       .  S
C789        C790   1.542       .  S
C789        C795   1.536       .  S
C789        C793   1.534       .  S
C790        H797   1.086       .  S
C790        C791   1.375       .  D
C791        C792   1.544       .  S
C791        C895   1.495       .  S
C792        C796   1.535       .  S
C792        C794   1.536       .  S
C792        H798   1.111       .  S
C793        H799   1.086       .  S
C793        C794   1.361       .  D
C794        C812   1.478       .  S
C795        H800   1.086       .  S
C795        C796   1.363       .  D
C796        C805   1.476       .  S
C801        C802   1.405       .  A
C801        C806   1.400       .  A
C801        H808   1.083       .  S
C802        C803   1.411       .  A
C803        C804   1.396       .  A
C803       Br810   1.916       .  S
C804        C805   1.400       .  A
C804        H809   1.083       .  S
C805        C806   1.409       .  A
C806       Br807   1.920       .  S
C811        C812   1.401       .  A
C811        C816   1.398       .  A
C811        H818   1.084       .  S
C812        C813   1.412       .  A
C813        C814   1.395       .  A
C813       Br820   1.921       .  S
C814        C815   1.403       .  A
C814        H819   1.084       .  S
C815        C816   1.410       .  A
C816       Br817   1.914       .  S
C821        C822   1.405       .  A
C821        C826   1.392       .  A
C821        H828   1.083       .  S
C822        C823   1.413       .  A
C823        C824   1.397       .  A
C823       Br830   1.921       .  S
C824        C825   1.404       .  A
C824        H829   1.084       .  S
C825        C826   1.408       .  A
C826       Br827   1.921       .  S
C831        C832   1.403       .  A
C831        C836   1.399       .  A
C831        H838   1.083       .  S
C832        C833   1.410       .  A
C833        C834   1.401       .  A
C833       Br840   1.919       .  S
C834        C835   1.407       .  A
C834        H839   1.083       .  S
C835        C836   1.414       .  A
C836       Br837   1.916       .  S
C841        C842   1.403       .  A
C841        C846   1.395       .  A
C841        H848   1.083       .  S
C842        C843   1.407       .  A
C843        C844   1.402       .  A
C843       Br850   1.917       .  S
C844        C845   1.408       .  A
C844        H849   1.083       .  S
C845        C846   1.408       .  A
C846       Br847   1.917       .  S
C851        C852   1.406       .  A
C851        C856   1.403       .  A
C851        H858   1.083   1_545  S
C852        C853   1.411       .  A
C853        C854   1.394       .  A
C853       Br860   1.914       .  S
C854        C855   1.400       .  A
C854        H859   1.084       .  S
C855        C856   1.411       .  A
C856       Br857   1.918   1_545  S
C861        C862   1.399       .  A
C861        C866   1.393       .  A
C861        H868   1.082       .  S
C862        C863   1.411       .  A
C863        C864   1.400       .  A
C863       Br870   1.923       .  S
C864        C865   1.414       .  A
C864        H869   1.082       .  S
C865        C866   1.421       .  A
C866       Br867   1.916       .  S
C871        C872   1.399       .  A
C871        C876   1.395       .  A
C871        H878   1.084       .  S
C872        C873   1.408       .  A
C873        C874   1.402       .  A
C873       Br880   1.918   1_545  S
C874        C875   1.410       .  A
C874        H879   1.083   1_545  S
C875        C876   1.423       .  A
C876       Br877   1.918       .  S
C881        C882   1.400       .  A
C881        C886   1.401       .  A
C881        H888   1.084       .  S
C882        C883   1.417       .  A
C883        C884   1.405       .  A
C883       Br890   1.921       .  S
C884        C885   1.405       .  A
C884        H889   1.084       .  S
C885        C886   1.416       .  A
C886       Br887   1.913       .  S
C891        C892   1.400       .  A
C891        C896   1.397       .  A
C891        H898   1.081       .  S
C892        C893   1.412       .  A
C893        C894   1.405       .  A
C893       Br900   1.920       .  S
C894        C895   1.407       .  A
C894        H899   1.083       .  S
C895        C896   1.414       .  A
C896       Br897   1.914       .  S
C901        C902   1.398       .  A
C901        C906   1.392       .  A
C901        H908   1.083       .  S
C902        C903   1.406       .  A
C903        C904   1.392       .  A
C903       Br910   1.923       .  S
C904        C905   1.399       .  A
C904        H909   1.084       .  S
C905        C906   1.405       .  A
C906       Br907   1.923       .  S
C911        C912   1.409       .  A
C911        C916   1.407       .  A
C911        H918   1.084       .  S
C912        C913   1.414       .  A
C913        C914   1.392       .  A
C913       Br920   1.905       .  S
C914        C915   1.391       .  A
C914        H919   1.081       .  S
C915        C916   1.408       .  A
C916       Br917   1.916       .  S
C921        C922   1.409       .  A
C921        C926   1.403       .  A
C921        H928   1.083       .  S
C922        C923   1.412       .  A
C923        C924   1.397   1_655  A
C923       Br930   1.910       .  S
C924        C925   1.401       .  A
C924        H929   1.084       .  S
C925        C926   1.413   1_455  A
C926       Br927   1.923   1_655  S
C931        C932   1.405       .  A
C931        C936   1.398       .  A
C931        H938   1.083       .  S
C932        C933   1.407       .  A
C933        C934   1.394       .  A
C933       Br940   1.904       .  S
C934        C935   1.399       .  A
C934        H939   1.084       .  S
C935        C936   1.410       .  A
C936       Br937   1.921       .  S
C941        C942   1.403   1_655  A
C941        C946   1.401       .  A
C941        H948   1.084   1_655  S
C942        C943   1.408   1_455  A
C943        C944   1.395       .  A
C943       Br950   1.910   1_655  S
C944        C945   1.397       .  A
C944        H949   1.084       .  S
C945        C946   1.407       .  A
C946       Br947   1.919       .  S
C951        C952   1.402       .  A
C951        C956   1.397       .  A
C951        H958   1.084       .  S
C952        C953   1.408       .  A
C953        C954   1.398       .  A
C953       Br960   1.904       .  S
C954        C955   1.398       .  A
C954        H959   1.084       .  S
C955        C956   1.408       .  A
C956       Br957   1.919       .  S
C961        C962   1.401       .  A
C961        C966   1.395       .  A
C961        H968   1.084       .  S
C962        C963   1.411       .  A
C963        C964   1.406       .  A
C963       Br970   1.919       .  S
C964        C965   1.409       .  A
C964        H969   1.083       .  S
C965        C966   1.409       .  A
C966       Br967   1.913       .  S
C971        C972   1.407       .  A
C971        C976   1.400       .  A
C971        H978   1.083       .  S
C972        C973   1.411       .  A
C973        C974   1.398       .  A
C973       Br980   1.918       .  S
C974        C975   1.404       .  A
C974        H979   1.083       .  S
C975        C976   1.410       .  A
C976       Br977   1.919   1_545  S
C981        C982   1.406       .  A
C981        C986   1.402       .  A
C981        H988   1.084       .  S
C982        C983   1.411       .  A
C983        C984   1.398       .  A
C983       Br990   1.913       .  S
C984        C985   1.403       .  A
C984        H989   1.084       .  S
C985        C986   1.411       .  A
C986       Br987   1.919       .  S
C991        C992   1.398       .  A
C991        C996   1.395       .  A
C991        H998   1.100       .  S
C992        C993   1.412       .  A
C993        C994   1.404       .  A
C993      Br1000   1.923       .  S
C994        C995   1.407       .  A
C994        H999   1.081       .  S
C995        C996   1.411       .  A
C996       Br997   1.912       .  S
C1001      C1002   1.402       .  A
C1001      C1006   1.394       .  A
C1001      H1008   1.084       .  S
C1002      C1003   1.405       .  A
C1003      C1004   1.389       .  A
C1003     Br1010   1.901       .  S
C1004      C1005   1.395   1_655  A
C1004      H1009   1.084   1_655  S
C1005      C1006   1.408   1_455  A
C1006     Br1007   1.920   1_655  S
C1011      C1012   1.405       .  A
C1011      C1016   1.400       .  A
C1011      H1018   1.084       .  S
C1012      C1013   1.409       .  A
C1013      C1014   1.394       .  A
C1013     Br1020   1.918       .  S
C1014      C1015   1.401       .  A
C1014      H1019   1.084       .  S
C1015      C1016   1.407       .  A
C1016     Br1017   1.918   1_545  S
C1021      C1022   1.403       .  A
C1021      C1026   1.401       .  A
C1021      H1028   1.084       .  S
C1022      C1023   1.407       .  A
C1023      C1024   1.395       .  A
C1023     Br1030   1.920       .  S
C1024      C1025   1.404   1_655  A
C1024      H1029   1.083   1_655  S
C1025      C1026   1.410   1_455  A
C1026     Br1027   1.916   1_655  S
C1031      C1032   1.401       .  A
C1031      C1036   1.398       .  A
C1031      H1038   1.081       .  S
C1032      C1033   1.411       .  A
C1033      C1034   1.401       .  A
C1033     Br1040   1.919       .  S
C1034      C1035   1.405       .  A
C1034      H1039   1.088       .  S
C1035      C1036   1.411       .  A
C1036     Br1037   1.913       .  S
C1041      C1042   1.408       .  A
C1041      C1046   1.404       .  A
C1041      H1048   1.083       .  S
C1042      C1043   1.410       .  A
C1043      C1044   1.395       .  A
C1043     Br1050   1.910       .  S
C1044      C1045   1.402       .  A
C1044      H1049   1.081       .  S
C1045      C1046   1.414       .  A
C1046     Br1047   1.920       .  S
C1051      C1052   1.403   1_655  A
C1051      C1056   1.396       .  A
C1051      H1058   1.084   1_655  S
C1052      C1053   1.410   1_455  A
C1053      C1054   1.397       .  A
C1053     Br1060   1.913   1_655  S
C1054      C1055   1.401       .  A
C1054      H1059   1.084       .  S
C1055      C1056   1.410       .  A
C1056     Br1057   1.920   1_545  S
C1061      C1062   1.407   1_655  A
C1061      C1066   1.398       .  A
C1061      H1068   1.083   1_655  S
C1062      C1063   1.413   1_455  A
C1063      C1064   1.396       .  A
C1063     Br1070   1.914   1_655  S
C1064      C1065   1.401       .  A
C1064      H1069   1.081       .  S
C1065      C1066   1.410       .  A
C1066     Br1067   1.920       .  S
C1071      C1072   1.414       .  A
C1071      C1076   1.408       .  A
C1071      H1078   1.083       .  S
C1072      C1073   1.418       .  A
C1073      C1074   1.392       .  A
C1073     Br1080   1.913       .  S
C1074      C1075   1.397       .  A
C1074      H1079   1.075       .  S
C1075      C1076   1.412       .  A
C1076     Br1077   1.921       .  S
C1081      C1082   1.402   1_565  A
C1081      C1086   1.397       .  A
C1081      H1088   1.079       .  S
C1082      C1083   1.410       .  A
C1083      C1084   1.402       .  A
C1083     Br1090   1.918       .  S
C1084      C1085   1.403       .  A
C1084      H1089   1.083       .  S
C1085      C1086   1.405   1_545  A
C1086     Br1087   1.917       .  S
C1091      C1092   1.398   1_565  A
C1091      C1096   1.396       .  A
C1091      H1098   1.084       .  S
C1092      C1093   1.405       .  A
C1093      C1094   1.400       .  A
C1093     Br1100   1.921       .  S
C1094      C1095   1.403       .  A
C1094      H1099   1.084       .  S
C1095      C1096   1.407   1_545  A
C1096     Br1097   1.917       .  S
C1101      C1102   1.408       .  A
C1101      C1106   1.399       .  A
C1101      H1108   1.083       .  S
C1102      C1103   1.417       .  A
C1103      C1104   1.399       .  A
C1103     Br1110   1.911       .  S
C1104      C1105   1.400   1_655  A
C1104      H1109   1.084   1_655  S
C1105      C1106   1.411   1_455  A
C1106     Br1107   1.920   1_645  S
C1111      C1112   1.402       .  A
C1111      C1116   1.402       .  A
C1111      H1118   1.083       .  S
C1112      C1113   1.406       .  A
C1113      C1114   1.393       .  A
C1113     Br1120   1.909       .  S
C1114      C1115   1.394       .  A
C1114      H1119   1.081       .  S
C1115      C1116   1.409       .  A
C1116     Br1117   1.920       .  S
C1121      C1122   1.405       .  A
C1121      C1126   1.400       .  A
C1121      H1128   1.084       .  S
C1122      C1123   1.413       .  A
C1123      C1124   1.394       .  A
C1123     Br1130   1.924       .  S
C1124      C1125   1.405       .  A
C1124      H1129   1.084       .  S
C1125      C1126   1.413       .  A
C1126     Br1127   1.919       .  S
C1131      C1132   1.400       .  A
C1131      C1136   1.399       .  A
C1131      H1138   1.082       .  S
C1132      C1133   1.407       .  A
C1133      C1134   1.400       .  A
C1133     Br1140   1.919       .  S
C1134      C1135   1.401       .  A
C1134      H1139   1.083       .  S
C1135      C1136   1.408       .  A
C1136     Br1137   1.917       .  S
C1141      C1142   1.403       .  A
C1141      C1146   1.400       .  A
C1141      H1148   1.083       .  S
C1142      C1143   1.410       .  A
C1143      C1144   1.396       .  A
C1143     Br1150   1.919       .  S
C1144      C1145   1.406       .  A
C1144      H1149   1.083       .  S
C1145      C1146   1.414       .  A
C1146     Br1147   1.911       .  S
C1151      C1152   1.400       .  A
C1151      C1156   1.399   1_655  A
C1151      H1158   1.081       .  S
C1152      C1153   1.410       .  A
C1153      C1154   1.402   1_655  A
C1153     Br1160   1.915       .  S
C1154      C1155   1.404       .  A
C1154      H1159   1.084       .  S
C1155      C1156   1.407       .  A
C1156     Br1157   1.905       .  S
C1161      C1162   1.399       .  A
C1161      C1166   1.397       .  A
C1161      H1168   1.083       .  S
C1162      C1163   1.409   1_565  A
C1163      C1164   1.396       .  A
C1163     Br1170   1.922       .  S
C1164      C1165   1.404   1_545  A
C1164      H1169   1.083       .  S
C1165      C1166   1.412       .  A
C1166     Br1167   1.914       .  S
C1171      C1172   1.405       .  A
C1171      C1176   1.397       .  A
C1171      H1178   1.083       .  S
C1172      C1173   1.415       .  A
C1173      C1174   1.400       .  A
C1173     Br1180   1.917       .  S
C1174      C1175   1.403       .  A
C1174      H1179   1.084       .  S
C1175      C1176   1.412       .  A
C1176     Br1177   1.921       .  S
C1181      C1182   1.403       .  A
C1181      C1186   1.401       .  A
C1181      H1188   1.084       .  S
C1182      C1183   1.407       .  A
C1183      C1184   1.398       .  A
C1183     Br1190   1.911       .  S
C1184      C1185   1.400       .  A
C1184      H1189   1.084       .  S
C1185      C1186   1.408       .  A
C1186     Br1187   1.918       .  S
C1191      C1192   1.400       .  A
C1191      C1196   1.395       .  A
C1191      H1198   1.076       .  S
C1192      C1193   1.411       .  A
C1193      C1194   1.400       .  A
C1193     Br1200   1.921       .  S
C1194      C1195   1.411       .  A
C1194      H1199   1.082       .  S
C1195      C1196   1.423       .  A
C1196     Br1197   1.918       .  S
C1201      C1202   1.404   1_565  A
C1201      C1206   1.402       .  A
C1201      H1208   1.084       .  S
C1202      C1203   1.408       .  A
C1203      C1204   1.397       .  A
C1203     Br1210   1.914       .  S
C1204      C1205   1.402   1_545  A
C1204      H1209   1.084       .  S
C1205      C1206   1.409       .  A
C1206     Br1207   1.918       .  S
C1211      C1212   1.408       .  A
C1211      C1216   1.404       .  A
C1211      H1218   1.083       .  S
C1212      C1213   1.412       .  A
C1213      C1214   1.399       .  A
C1213     Br1220   1.918       .  S
C1214      C1215   1.404       .  A
C1214      H1219   1.084       .  S
C1215      C1216   1.411       .  A
C1216     Br1217   1.918       .  S
C1221      C1222   1.399       .  A
C1221      C1226   1.393       .  A
C1221      H1228   1.083       .  S
C1222      C1223   1.412   1_565  A
C1223      C1224   1.405       .  A
C1223     Br1230   1.919       .  S
C1224      C1225   1.407   1_545  A
C1224      H1229   1.084       .  S
C1225      C1226   1.405       .  A
C1226     Br1227   1.902       .  S
C1231      C1232   1.402       .  A
C1231      C1236   1.397       .  A
C1231      H1238   1.083       .  S
C1232      C1233   1.406       .  A
C1233      C1234   1.393       .  A
C1233     Br1240   1.912       .  S
C1234      C1235   1.396       .  A
C1234      H1239   1.083       .  S
C1235      C1236   1.406       .  A
C1236     Br1237   1.918       .  S
C1241      C1242   1.402       .  A
C1241      C1246   1.399       .  A
C1241      H1248   1.084       .  S
C1242      C1243   1.408       .  A
C1243      C1244   1.398       .  A
C1243     Br1250   1.911       .  S
C1244      C1245   1.399       .  A
C1244      H1249   1.084       .  S
C1245      C1246   1.407       .  A
C1246     Br1247   1.919       .  S
C1251      C1252   1.406       .  A
C1251      C1256   1.401       .  A
C1251      H1258   1.083       .  S
C1252      C1253   1.406       .  A
C1253      C1254   1.395       .  A
C1253     Br1260   1.916       .  S
C1254      C1255   1.400       .  A
C1254      H1259   1.078       .  S
C1255      C1256   1.410       .  A
C1256     Br1257   1.919       .  S
C1261      C1262   1.405       .  A
C1261      C1266   1.396       .  A
C1261      H1268   1.084       .  S
C1262      C1263   1.414       .  A
C1263      C1264   1.402       .  A
C1263     Br1270   1.916       .  S
C1264      C1265   1.402       .  A
C1264      H1269   1.083       .  S
C1265      C1266   1.414       .  A
C1266     Br1267   1.923       .  S
C1271      C1272   1.406       .  A
C1271      C1276   1.405       .  A
C1271      H1278   1.083       .  S
C1272      C1273   1.409       .  A
C1273      C1274   1.395       .  A
C1273     Br1280   1.899       .  S
C1274      C1275   1.398       .  A
C1274      H1279   1.083       .  S
C1275      C1276   1.415       .  A
C1276     Br1277   1.921       .  S
