geometry optimzed in LAMMPS
_audit_creation_date              2020-11-30 
_audit_creation_method            'lammps2cif' 
_symmetry_space_group_name_H-M    'P1' 
_symmetry_Int_Tables_number       1 
_symmetry_cell_setting            triclinic 
loop_ 
_symmetry_equiv_pos_as_xyz 
  x,y,z 
_cell_length_a                    40.36248372 
_cell_length_b                    39.868255071892456 
_cell_length_c                    41.61445512954048 
_cell_angle_alpha                 89.8206175507146 
_cell_angle_beta                  90.09802615608564 
_cell_angle_gamma                 90.02005336619662 
loop_ 
_atom_site_label 
_atom_site_type_symbol 
_atom_site_fract_x 
_atom_site_fract_y 
_atom_site_fract_z 
_atom_site_charge 
C1          C  0.42918252  0.41918562  0.43926705     0.42400
N2          N  0.46666487  0.45571708  0.44997658     0.01300
C3          C  0.56652414  0.46374440  0.58536544    -0.06600
H4          H  0.44418773  0.47361194  0.61099411     0.06800
C5          C  0.44236956  0.58324072  0.54051826    -0.06900
Co6        Co  0.50496555  0.43742495  0.50916056     0.74200
N7          N  0.47003701  0.46491526  0.56650530    -0.26100
Co8        Co  0.50466251  0.50357680  0.56303509     0.74100
C9          C  0.42782189  0.57387292  0.57136091     0.42500
N10         N  0.46493822  0.55554327  0.46471781     0.00900
N11         N  0.46745516  0.53991177  0.56032919     0.01000
N12         N  0.56616342  0.42038528  0.55039315    -0.47000
H13         H  0.44189626  0.38852997  0.48479395     0.06800
N14         N  0.46972072  0.43984724  0.54584214     0.01300
N15         N  0.53978698  0.54165186  0.55844049     0.01000
C16         C  0.57975810  0.57597085  0.56674524     0.42600
N17         N  0.46495150  0.53078502  0.44375358    -0.25600
C18         C  0.56375629  0.41350708  0.46695976    -0.06500
N19         N  0.44391329  0.44747763  0.42844957    -0.46700
N20         N  0.56377814  0.54903666  0.57899898    -0.46900
C21         C  0.57766289  0.42283134  0.43576135     0.42400
N22         N  0.54211256  0.44207900  0.54401395     0.01300
N23         N  0.53692685  0.53214066  0.44223375    -0.25600
N24         N  0.46815413  0.43421366  0.47413790    -0.26100
N25         N  0.53667654  0.55698349  0.46309131     0.00900
H26         H  0.56494779  0.52356525  0.39886895     0.06800
H27         H  0.56756347  0.60598806  0.52083946     0.06800
N28         N  0.54169448  0.46742338  0.56432389    -0.26100
N29         N  0.46666853  0.56100614  0.53585628    -0.25800
N30         N  0.53879579  0.45729505  0.44797029     0.01300
C31         C  0.43370712  0.42598778  0.58141933     0.42700
C32         C  0.44131733  0.53685537  0.42171871    -0.07000
N33         N  0.53868923  0.56255321  0.53385587    -0.25800
H34         H  0.43690607  0.60426370  0.52492117     0.06800
N35         N  0.44851048  0.41588838  0.55400434    -0.47000
H36         H  0.43681796  0.52195971  0.40048482     0.06800
C37         C  0.57421498  0.57098984  0.42932700     0.42500
C38         C  0.44529938  0.41031276  0.46961536    -0.06500
Co39       Co  0.50178415  0.49383376  0.44533610     0.73800
N40         N  0.44276414  0.57893627  0.45797640    -0.46700
C41         C  0.58282600  0.43256182  0.57608263     0.42800
N42         N  0.56077250  0.45008361  0.42538182    -0.46700
Co43       Co  0.50168985  0.55947386  0.49937219     0.73900
C44         C  0.56310751  0.58506198  0.53685322    -0.07000
C45         C  0.44811727  0.45841954  0.58985481    -0.06600
N46         N  0.53986171  0.43606651  0.47235735    -0.26100
N47         N  0.44483097  0.54693441  0.58239056    -0.46900
H48         H  0.57138453  0.48017915  0.60543678     0.06800
C49         C  0.56010695  0.53860756  0.41992307    -0.07000
Cl50       Cl  0.50319817  0.49855223  0.50421037    -0.50000
C51         C  0.42658437  0.56892278  0.43131556     0.42500
H52         H  0.56917137  0.39218985  0.48220081     0.06800
N53         N  0.55823721  0.58080684  0.45607463    -0.46700
C54         C  0.07431059  0.42404285  0.92370894     0.42400
N55         N  0.06094942  0.45772267  0.96155799     0.01300
C56         C  0.91959773  0.45927679  0.05531877    -0.06600
H57         H  0.89643612  0.47506429  0.93442376     0.06800
C58         C  0.96505887  0.58304324  0.93687379    -0.06900
Co59       Co  0.99955899  0.43675491  0.99608230     0.74200
N60         N  0.94067510  0.46455368  0.96156165    -0.26100
Co61       Co  0.94242976  0.50209110  0.99617378     0.74100
C62         C  0.93354999  0.57342685  0.92222618     0.42500
N63         N  0.04360815  0.55657129  0.96066905     0.00900
N64         N  0.94508256  0.53914247  0.96057962     0.01000
N65         N  0.95681752  0.41692791  0.05355614    -0.47000
H66         H  0.02831722  0.39089738  0.93302145     0.06800
N67         N  0.96220327  0.43962804  0.96114438     0.01300
N68         N  0.94545335  0.53989008  0.03072391     0.01000
C69         C  0.93384740  0.57590340  0.06725722     0.42600
N70         N  0.06547925  0.53201890  0.96118381    -0.25600
C71         C  0.04240977  0.41247894  0.05437207    -0.06500
N72         N  0.08384782  0.45179705  0.93964117    -0.46700
N73         N  0.92284141  0.54782340  0.05247636    -0.46900
C74         C  0.07304417  0.42363835  0.06983609     0.42400
N75         N  0.96293640  0.43978972  0.03122564     0.01300
N76         N  0.06516500  0.53261371  0.03082092    -0.25600
N77         N  0.03680023  0.43538582  0.96129264    -0.26100
N78         N  0.04331285  0.55718658  0.03022525     0.00900
H79         H  0.11026957  0.52499070  0.05772043     0.06800
H80         H  0.98073838  0.60677914  0.05593141     0.06800
N81         N  0.94136598  0.46469353  0.03149681    -0.26100
N82         N  0.96996354  0.56059467  0.96034245    -0.25800
N83         N  0.06066930  0.45770495  0.03163841     0.01300
C84         C  0.92730181  0.42773980  0.92378201     0.42700
C85         C  0.08882704  0.53838516  0.93911089    -0.07000
N86         N  0.97015783  0.56151758  0.02994572    -0.25800
H87         H  0.98080454  0.60441285  0.93207746     0.06800
N88         N  0.95483182  0.41675110  0.93917078    -0.47000
H89         H  0.11109781  0.52380789  0.93550955     0.06800
C90         C  0.07809551  0.57194446  0.06644545     0.42500
C91         C  0.04306079  0.41290541  0.93811298    -0.06500
Co92       Co  0.06359971  0.49483524  0.99637718     0.73800
N93         N  0.05121553  0.58041193  0.93979042    -0.46700
C94         C  0.92999516  0.42753699  0.06996552     0.42800
N95         N  0.08295849  0.45168144  0.05431910    -0.46700
Co96       Co  0.00676878  0.55937596  0.99523822     0.73900
C97         C  0.96522445  0.58500596  0.05227327    -0.07000
C98         C  0.91788695  0.45942499  0.93869028    -0.06600
N99         N  0.03670500  0.43516820  0.03111009    -0.26100
N100        N  0.92250262  0.54610817  0.93835228    -0.46900
H101        H  0.89823777  0.47469643  0.06048450     0.06800
C102        C  0.08811286  0.53951671  0.05321951    -0.07000
Cl103      Cl  0.00307975  0.49823528  0.99596498    -0.50000
C104        C  0.07924053  0.57055772  0.92495775     0.42500
H105        H  0.02745614  0.39052638  0.05918637     0.06800
N106        N  0.05031943  0.58132546  0.05081657    -0.46700
C107        C  0.75730555  0.24306047  0.74489231    -0.02600
C108        C  0.43487189  0.07337502  0.92880499     0.42400
N109        N  0.44646523  0.03888461  0.96697044     0.01300
C110        C  0.58970916  0.03837644  0.05957889    -0.06600
H111        H  0.61100392  0.02762748  0.93841294     0.06800
C112        C  0.54481159  0.91483491  0.94125335    -0.06900
Co113      Co  0.50762823  0.05944883  0.00252743     0.74200
N114        N  0.56675822  0.03469566  0.96654242    -0.26100
Co115      Co  0.56636604  0.99598919  0.00045619     0.74100
C116        C  0.57597503  0.92499784  0.92648215     0.42500
N117        N  0.46599876  0.93979039  0.96489433     0.00900
N118        N  0.56407809  0.95923558  0.96454910     0.01000
N119        N  0.55055039  0.07893216  0.05991451    -0.47000
H120        H  0.48106314  0.10544918  0.93971677     0.06800
N121        N  0.54444271  0.05886684  0.96746910     0.01300
N122        N  0.56468790  0.95773270  0.03465444     0.01000
C123        C  0.57813909  0.92304008  0.07201978     0.42600
N124        N  0.44377858  0.96403500  0.96563241    -0.25600
C125        C  0.46438890  0.08137883  0.06100241    -0.06500
N126        N  0.42416978  0.04557729  0.94438535    -0.46700
N127        N  0.58754367  0.95137071  0.05668638    -0.46900
C128        C  0.43326657  0.07006808  0.07546317     0.42400
N129        N  0.54461274  0.05643190  0.03733147     0.01300
N130        N  0.44430978  0.96185068  0.03549633    -0.25600
N131        N  0.47076976  0.06102949  0.96753563    -0.26100
N132        N  0.46688491  0.93791586  0.03498512     0.00900
H133        H  0.40051879  0.96940134  0.06415845     0.06800
H134        H  0.53238184  0.88993091  0.06174079     0.06800
N135        N  0.56725200  0.03256331  0.03639684    -0.26100
N136        N  0.53967241  0.93719052  0.96456934    -0.25800
N137        N  0.44661887  0.03673804  0.03715166     0.01300
C138        C  0.57802114  0.07422759  0.93027250     0.42700
C139        C  0.42159377  0.95895259  0.94215658    -0.07000
N140        N  0.54080054  0.93512183  0.03429384    -0.25800
H141        H  0.52968100  0.89293398  0.93685011     0.06800
N142        N  0.55042783  0.08309010  0.94643370    -0.47000
H143        H  0.39992806  0.97422911  0.93772227     0.06800
C144        C  0.43399201  0.92325342  0.07296671     0.42500
C145        C  0.46574793  0.08368054  0.94421083    -0.06500
Co146      Co  0.44461863  0.00042732  0.00132532     0.73800
N147        N  0.46002511  0.91764973  0.94192786    -0.46700
C148        C  0.57848486  0.06921327  0.07519664     0.42800
N149        N  0.42371796  0.04239587  0.05923382    -0.46700
Co150      Co  0.50326817  0.93692730  0.99969137     0.73900
C151        C  0.54709212  0.91209201  0.05711320    -0.07000
C152        C  0.58898901  0.04205358  0.94362688    -0.06600
N153        N  0.47055323  0.05928115  0.03750615    -0.26100
N154        N  0.58674149  0.95252776  0.94239704    -0.46900
H155        H  0.61184207  0.02372992  0.06380521     0.06800
C156        C  0.42242155  0.95485696  0.05881727    -0.07000
Cl157      Cl  0.50548606  0.99819921  0.00100231    -0.50000
C158        C  0.43247613  0.92817046  0.92638424     0.42500
H159        H  0.47904286  0.10344525  0.06609148     0.06800
N160        N  0.46150720  0.91428379  0.05675667    -0.46700
C161        C  0.25369350  0.75170234  0.75127293    -0.02600
C162        C  0.93387268  0.07285448  0.42346129     0.42400
N163        N  0.96674481  0.03272986  0.43636889     0.01300
C164        C  0.96494761  0.93824673  0.57635569    -0.06600
H165        H  0.98137233  0.06394070  0.59508038     0.06800
C166        C  0.09012163  0.05852421  0.53063666    -0.06900
Co167      Co  0.94543047  0.99734126  0.49613355     0.74200
N168        N  0.97197685  0.03461558  0.55266227    -0.26100
Co169      Co  0.00895389  0.99823065  0.55238993     0.74100
C170        C  0.08041019  0.07413292  0.56088501     0.42500
N171        N  0.06452728  0.03332245  0.45403790     0.00900
N172        N  0.04595703  0.03485339  0.54946239     0.01000
N173        N  0.92441035  0.93890419  0.53879531    -0.47000
H174        H  0.90124308  0.06342428  0.46812052     0.06800
N175        N  0.94756905  0.03435824  0.53150794     0.01300
N176        N  0.04604186  0.96186619  0.55088485     0.01000
C177        C  0.08102652  0.92382347  0.56440888     0.42600
N178        N  0.04011192  0.03254314  0.43296161    -0.25600
C179        C  0.92241112  0.93570859  0.45554427    -0.06500
N180        N  0.96111082  0.05584777  0.41414882    -0.46700
N181        N  0.05323996  0.93991270  0.57381576    -0.46900
C182        C  0.93379336  0.91939351  0.42609965     0.42400
N183        N  0.94761792  0.96138715  0.53239619     0.01300
N184        N  0.04055989  0.95964856  0.43450145    -0.25600
N185        N  0.94462974  0.03322497  0.45967127    -0.26100
N186        N  0.06478835  0.96019189  0.45580506     0.00900
H187        H  0.03127953  0.92918266  0.39273504     0.06800
H188        H  0.11278966  0.93382407  0.51937235     0.06800
N189        N  0.97156484  0.96173891  0.55405032    -0.26100
N190        N  0.06759594  0.03445634  0.52572202    -0.25800
N191        N  0.96687893  0.95960920  0.43781633     0.01300
C192        C  0.93494489  0.07389568  0.56414676     0.42700
C193        C  0.04504580  0.05647766  0.41089443    -0.07000
N194        N  0.06793394  0.96175529  0.52734793    -0.25800
H195        H  0.11177819  0.06280499  0.51592758     0.06800
N196        N  0.92458557  0.05715941  0.53777297    -0.47000
H197        H  0.02963824  0.06079781  0.39001166     0.06800
C198        C  0.07748421  0.91973890  0.42427122     0.42500
C199        C  0.92278251  0.05781437  0.45369793    -0.06500
Co200      Co  0.00347688  0.99607710  0.43485074     0.73800
N201        N  0.08686173  0.05668340  0.44722535    -0.46700
C202        C  0.93358703  0.92304556  0.56607981     0.42800
N203        N  0.96132460  0.93573855  0.41647941    -0.46700
Co204      Co  0.06680482  0.99745234  0.49069016     0.73900
C205        C  0.09083864  0.93832344  0.53357988    -0.07000
C206        C  0.96636741  0.05894207  0.57408027    -0.06600
N207        N  0.94447114  0.96026919  0.46084644    -0.26100
N208        N  0.05298246  0.05793859  0.57130071    -0.46900
H209        H  0.97938225  0.93374392  0.59784704     0.06800
C210        C  0.04628692  0.93479716  0.41358408    -0.07000
Cl211      Cl  0.00617539  0.99725343  0.49353185    -0.50000
C212        C  0.07599943  0.07255622  0.42042715     0.42500
H213        H  0.90067308  0.93075825  0.46994849     0.06800
N214        N  0.08754746  0.93698604  0.45040646    -0.46700
C215        C  0.75382845  0.74287522  0.25048507    -0.02600
C216        C  0.25643092  0.25357285  0.24920378    -0.02600
C217        C  0.75372323  0.25289570  0.24976335    -0.02600
C218        C  0.25399287  0.74447425  0.24783950    -0.02600
C219        C  0.25084108  0.24501938  0.75036909    -0.02600
C220        C  0.75338846  0.75012871  0.74654958    -0.02600
C221        C  0.22594703  0.22711378  0.72762007    -0.03300
C222        C  0.19147435  0.23359298  0.72766882    -0.05900
C223        C  0.17002097  0.21605116  0.70741456    -0.20900
C224        C  0.18219764  0.19239741  0.68562409     0.24800
C225        C  0.21661271  0.18716776  0.68398109    -0.18500
C226        C  0.23810306  0.20476839  0.70418005    -0.08500
C227        C  0.15813061  0.17302559  0.66591992    -0.18800
C228        C  0.16623983  0.15740700  0.63840405    -0.23600
C229        C  0.14240534  0.13762128  0.61889338     0.26800
C230        C  0.14947866  0.13250449  0.58630142    -0.20300
C231        C  0.12875385  0.11277700  0.56724983    -0.10000
C232        C  0.10059136  0.09736588  0.58046908    -0.10500
C233        C  0.09313791  0.10276818  0.61300200    -0.03400
C234        C  0.11391113  0.12257433  0.63212256    -0.18600
H235        H  0.18058630  0.25242806  0.74294174     0.10500
H236        H  0.14368757  0.22113287  0.70870166     0.10600
H237        H  0.22717428  0.16890957  0.66782226     0.10300
H238        H  0.26445469  0.20001377  0.70238755     0.11400
H239        H  0.13256101  0.17271804  0.67394279     0.11500
H240        H  0.19103805  0.16027357  0.62877281     0.13400
H241        H  0.17128543  0.14368866  0.57553723     0.09900
H242        H  0.13513211  0.10931087  0.54224233     0.12000
H243        H  0.07174802  0.09094546  0.62390485     0.08600
H244        H  0.10806208  0.12513134  0.65734252     0.11300
C245        C  0.23556401  0.23262114  0.27330653    -0.03300
C246        C  0.25197273  0.21164811  0.29566791    -0.05900
C247        C  0.23435615  0.19322774  0.31855485    -0.20900
C248        C  0.19979254  0.19554362  0.32032522     0.24800
C249        C  0.18330522  0.21790201  0.29960369    -0.18500
C250        C  0.20089729  0.23635460  0.27669189    -0.08500
C251        C  0.18196959  0.17486536  0.34454982    -0.18800
C252        C  0.15012349  0.16538438  0.34096767    -0.23600
C253        C  0.13176532  0.14292388  0.36343290     0.26800
C254        C  0.09811939  0.13690054  0.35707358    -0.20300
C255        C  0.07988365  0.11467167  0.37603219    -0.10000
C256        C  0.09485019  0.09784512  0.40191850    -0.10500
C257        C  0.12823546  0.10438781  0.40899651    -0.03400
C258        C  0.14660637  0.12660786  0.38992916    -0.18600
H259        H  0.27869286  0.20928084  0.29512685     0.10500
H260        H  0.24781266  0.17684776  0.33477897     0.10600
H261        H  0.15689407  0.22199044  0.30150030     0.10300
H262        H  0.18704253  0.25425617  0.26254428     0.11400
H263        H  0.19632231  0.16606704  0.36488859     0.11500
H264        H  0.13673869  0.17355304  0.31970554     0.13400
H265        H  0.08590551  0.14912884  0.33701261     0.09900
H266        H  0.05409338  0.11050703  0.37013337     0.12000
H267        H  0.14038870  0.09171901  0.42882645     0.08600
H268        H  0.17239179  0.13015884  0.39591292     0.11300
C269        C  0.77875712  0.76811291  0.72426871    -0.03300
C270        C  0.81245600  0.75869433  0.72226492    -0.05900
C271        C  0.83451825  0.77623657  0.70258858    -0.20900
C272        C  0.82365729  0.80293181  0.68331884     0.24800
C273        C  0.78979958  0.81124326  0.68352423    -0.18500
C274        C  0.76766294  0.79363428  0.70318494    -0.08500
C275        C  0.84869318  0.82203733  0.66442331    -0.18800
C276        C  0.84139659  0.84082975  0.63839009    -0.23600
C277        C  0.86660078  0.86027539  0.61999951     0.26800
C278        C  0.85952731  0.86940852  0.58812657    -0.20300
C279        C  0.88176007  0.88899333  0.57043239    -0.10000
C280        C  0.91154989  0.90014850  0.58429386    -0.10500
C281        C  0.91889244  0.89078415  0.61607394    -0.03400
C282        C  0.89661303  0.87119861  0.63382279    -0.18600
H283        H  0.82222665  0.73752928  0.73543400     0.10500
H284        H  0.86032454  0.76876484  0.70234857     0.10600
H285        H  0.78031312  0.83180739  0.66923498     0.10300
H286        H  0.74176541  0.80074670  0.70286145     0.11400
H287        H  0.87437425  0.81935028  0.67174215     0.11500
H288        H  0.81620557  0.84110716  0.62924959     0.13400
H289        H  0.83656917  0.86154514  0.57691460     0.09900
H290        H  0.87535818  0.89583939  0.54599435     0.12000
H291        H  0.94143773  0.89925397  0.62757826     0.08600
H292        H  0.90262960  0.86560370  0.65859169     0.11300
C293        C  0.22878748  0.76327977  0.26936939    -0.03300
C294        C  0.20758850  0.78726170  0.25502364    -0.05900
C295        C  0.18455706  0.80504885  0.27319475    -0.20900
C296        C  0.18119604  0.79885353  0.30615116     0.24800
C297        C  0.20022088  0.77321473  0.32027323    -0.18500
C298        C  0.22341319  0.75543585  0.30209360    -0.08500
C299        C  0.15708534  0.81915025  0.32470651    -0.18800
C300        C  0.16000929  0.82487279  0.35646214    -0.23600
C301        C  0.13769178  0.84791271  0.37417363     0.26800
C302        C  0.14996116  0.86461229  0.40132667    -0.20300
C303        C  0.13019853  0.88756614  0.41786154    -0.10000
C304        C  0.09762845  0.89411641  0.40768727    -0.10500
C305        C  0.08493550  0.87660778  0.38114499    -0.03400
C306        C  0.10471216  0.85364120  0.36458978    -0.18600
H307        H  0.20947566  0.79276821  0.22958728     0.10500
H308        H  0.16954446  0.82401366  0.26147564     0.10600
H309        H  0.19685729  0.76633979  0.34522516     0.10300
H310        H  0.23631185  0.73506802  0.31381484     0.11400
H311        H  0.13788349  0.83202464  0.31116797     0.11500
H312        H  0.18109967  0.81473274  0.36946451     0.13400
H313        H  0.17516467  0.86041287  0.40937325     0.09900
H314        H  0.14061794  0.90056662  0.43833980     0.12000
H315        H  0.05976621  0.88068940  0.37303686     0.08600
H316        H  0.09403861  0.84035764  0.34444006     0.11300
C317        C  0.77630324  0.76463417  0.27233610    -0.03300
C318        C  0.76113836  0.78767633  0.29338384    -0.05900
C319        C  0.77977442  0.80682710  0.31476595    -0.20900
C320        C  0.81425838  0.80326624  0.31654805     0.24800
C321        C  0.82964320  0.77943948  0.29659343    -0.18500
C322        C  0.81092485  0.76020800  0.27507697    -0.08500
C323        C  0.83252640  0.82464109  0.33998332    -0.18800
C324        C  0.86573013  0.82548074  0.34338711    -0.23600
C325        C  0.88291008  0.84839534  0.36611756     0.26800
C326        C  0.91582448  0.85750248  0.35971936    -0.20300
C327        C  0.93248456  0.88008431  0.37961976    -0.10000
C328        C  0.91668669  0.89376692  0.40660556    -0.10500
C329        C  0.88419947  0.88373636  0.41381420    -0.03400
C330        C  0.86746050  0.86121575  0.39382931    -0.18600
H331        H  0.73449906  0.79093582  0.29310618     0.10500
H332        H  0.76702787  0.82449356  0.33013190     0.10600
H333        H  0.85596871  0.77483038  0.29769617     0.10300
H334        H  0.82382049  0.74119056  0.26158502     0.11400
H335        H  0.81759393  0.84145932  0.35440173     0.11500
H336        H  0.88132312  0.81047830  0.32792461     0.13400
H337        H  0.92846653  0.84769903  0.33881426     0.09900
H338        H  0.95764420  0.88716100  0.37363204     0.12000
H339        H  0.87146454  0.89361848  0.43459078     0.08600
H340        H  0.84258108  0.85384583  0.40036472     0.11300
C341        C  0.77539386  0.22928181  0.27078726    -0.03300
C342        C  0.75970906  0.20614459  0.29155919    -0.05900
C343        C  0.77807670  0.18563404  0.31219050    -0.20900
C344        C  0.81279825  0.18684084  0.31232725     0.24800
C345        C  0.82872117  0.20823466  0.29022079    -0.18500
C346        C  0.81034380  0.22865329  0.26947104    -0.08500
C347        C  0.83098596  0.16540309  0.33593304    -0.18800
C348        C  0.86426359  0.16333089  0.33804860    -0.23600
C349        C  0.88172741  0.14109734  0.36122471     0.26800
C350        C  0.91367355  0.12992647  0.35349154    -0.20300
C351        C  0.93078750  0.10829209  0.37407374    -0.10000
C352        C  0.91644062  0.09762398  0.40306498    -0.10500
C353        C  0.88496177  0.10974640  0.41147763    -0.03400
C354        C  0.86773165  0.13130722  0.39077212    -0.18600
H355        H  0.73293041  0.20483757  0.29257198     0.10500
H356        H  0.76498308  0.16901484  0.32843762     0.10600
H357        H  0.85534035  0.20968825  0.28853763     0.10300
H358        H  0.82401052  0.24370704  0.25244277     0.11400
H359        H  0.81602951  0.15008031  0.35190151     0.11500
H360        H  0.87979452  0.17691943  0.32133048     0.13400
H361        H  0.92519344  0.13743812  0.33109876     0.09900
H362        H  0.95512685  0.09957093  0.36706074     0.12000
H363        H  0.87337696  0.10226587  0.43380448     0.08600
H364        H  0.84366424  0.14037395  0.39812328     0.11300
C365        C  0.22894477  0.77349196  0.73177618    -0.03300
C366        C  0.19473884  0.77497911  0.73910635    -0.05900
C367        C  0.17322350  0.79516607  0.72128834    -0.20900
C368        C  0.18504057  0.81483466  0.69588155     0.24800
C369        C  0.21929386  0.81544939  0.68978735    -0.18500
C370        C  0.24092116  0.79542169  0.70777972    -0.08500
C371        C  0.16100773  0.83497167  0.67686954    -0.18800
C372        C  0.16625114  0.84349668  0.64595416    -0.23600
C373        C  0.14257070  0.86296304  0.62573980     0.26800
C374        C  0.14873674  0.86511406  0.59260262    -0.20300
C375        C  0.12831454  0.88423311  0.57257167    -0.10000
C376        C  0.10114139  0.90165892  0.58522324    -0.10500
C377        C  0.09443119  0.89911068  0.61823550    -0.03400
C378        C  0.11502563  0.88016641  0.63838302    -0.18600
H379        H  0.18421718  0.76111992  0.75896318     0.10500
H380        H  0.14710107  0.79517443  0.72724361     0.10600
H381        H  0.22958637  0.83168703  0.67147960     0.10300
H382        H  0.26718928  0.79656957  0.70262373     0.11400
H383        H  0.13764472  0.84090949  0.68829031     0.11500
H384        H  0.18871249  0.83486569  0.63429583     0.13400
H385        H  0.16970269  0.85219210  0.58215007     0.09900
H386        H  0.13401951  0.88552506  0.54719492     0.12000
H387        H  0.07376654  0.91251911  0.62866851     0.08600
H388        H  0.10952937  0.87990992  0.66376885     0.11300
C389        C  0.73332373  0.22866468  0.22820749    -0.03300
C390        C  0.75003475  0.20734758  0.20654292    -0.05900
C391        C  0.73276258  0.18443303  0.18742675    -0.20900
C392        C  0.69827754  0.18114275  0.18995990     0.24800
C393        C  0.68159585  0.20076398  0.21284036    -0.18500
C394        C  0.69878947  0.22397731  0.23167726    -0.08500
C395        C  0.68096148  0.15625064  0.16912655    -0.18800
C396        C  0.64795969  0.15620110  0.16397661    -0.23600
C397        C  0.63074936  0.13258652  0.14191070     0.26800
C398        C  0.59988329  0.14210551  0.12931166    -0.20300
C399        C  0.58285331  0.12123089  0.10807323    -0.10000
C400        C  0.59617191  0.09012981  0.09904822    -0.10500
C401        C  0.62666742  0.08004425  0.11224696    -0.03400
C402        C  0.64380356  0.10102788  0.13354456    -0.18600
H403        H  0.77672029  0.20878084  0.20420469     0.10500
H404        H  0.74649616  0.16911710  0.17061683     0.10600
H405        H  0.65535533  0.19783419  0.21708967     0.10300
H406        H  0.68473568  0.23718964  0.24968900     0.11400
H407        H  0.69634300  0.13844239  0.15631639     0.11500
H408        H  0.63280365  0.17567569  0.17456323     0.13400
H409        H  0.58907397  0.16608062  0.13556129     0.09900
H410        H  0.55933611  0.12967388  0.09844497     0.12000
H411        H  0.63741528  0.05607169  0.10603415     0.08600
H412        H  0.66700638  0.09228200  0.14353560     0.11300
C413        C  0.41223787  0.08788937  0.09906343    -0.03300
C414        C  0.38203982  0.07381421  0.10903646    -0.05900
C415        C  0.36114713  0.09126508  0.12991020    -0.20900
C416        C  0.36974771  0.12330544  0.14111767     0.24800
C417        C  0.40048078  0.13700535  0.13184773    -0.18500
C418        C  0.42142321  0.11948663  0.11100000    -0.08500
C419        C  0.34620993  0.14111606  0.16275542    -0.18800
C420        C  0.34610355  0.17468182  0.16705623    -0.23600
C421        C  0.32221655  0.19325423  0.18788951     0.26800
C422        C  0.32328976  0.22843647  0.18770128    -0.20300
C423        C  0.30194245  0.24719626  0.20700070    -0.10000
C424        C  0.27926246  0.23147621  0.22798581    -0.10500
C425        C  0.27719360  0.19610854  0.22690571    -0.03400
C426        C  0.29861318  0.17731735  0.20761234    -0.18600
H427        H  0.37435000  0.04941285  0.10042574     0.10500
H428        H  0.33786809  0.07987839  0.13691806     0.10600
H429        H  0.40872156  0.16103122  0.14078966     0.10300
H430        H  0.44466490  0.13091036  0.10407532     0.11400
H431        H  0.32748652  0.12575623  0.17417840     0.11500
H432        H  0.36386113  0.18982699  0.15391798     0.13400
H433        H  0.34079334  0.24160180  0.17250457     0.09900
H434        H  0.30356700  0.27429671  0.20609424     0.12000
H435        H  0.25878172  0.18249404  0.24049002     0.08600
H436        H  0.29624408  0.15037485  0.20847993     0.11300
C437        C  0.27682578  0.76904396  0.22916862    -0.03300
C438        C  0.27933763  0.80341850  0.23697880    -0.05900
C439        C  0.29920491  0.82507627  0.21900544    -0.20900
C440        C  0.31837493  0.81313390  0.19348093     0.24800
C441        C  0.31790837  0.77857379  0.18676317    -0.18500
C442        C  0.29793904  0.75682112  0.20480333    -0.08500
C443        C  0.33739744  0.83794206  0.17410952    -0.18800
C444        C  0.36331820  0.83020305  0.15518841    -0.23600
C445        C  0.38155287  0.85562092  0.13574747     0.26800
C446        C  0.41388772  0.84834032  0.12557617    -0.20300
C447        C  0.43124430  0.87081312  0.10596797    -0.10000
C448        C  0.41653417  0.90102099  0.09590705    -0.10500
C449        C  0.38440549  0.90863733  0.10644629    -0.03400
C450        C  0.36699348  0.88612781  0.12596759    -0.18600
H451        H  0.26628396  0.81401590  0.25717439     0.10500
H452        H  0.29969284  0.85143823  0.22524615     0.10600
H453        H  0.33220529  0.76823813  0.16721665     0.10300
H454        H  0.29805256  0.73036835  0.19896734     0.11400
H455        H  0.33029910  0.86402821  0.17672101     0.11500
H456        H  0.37245954  0.80462817  0.15468288     0.13400
H457        H  0.42566882  0.82502546  0.13259572     0.09900
H458        H  0.45600128  0.86424279  0.09821678     0.12000
H459        H  0.37224835  0.93153245  0.09890704     0.08600
H460        H  0.34179963  0.89236438  0.13236729     0.11300
C461        C  0.73537598  0.77507830  0.76923235    -0.03300
C462        C  0.74473214  0.80910835  0.77235197    -0.05900
C463        C  0.72769900  0.83066765  0.79292175    -0.20900
C464        C  0.70125949  0.81902283  0.81162303     0.24800
C465        C  0.69328459  0.78470446  0.81059742    -0.18500
C466        C  0.71035849  0.76308862  0.79004836    -0.08500
C467        C  0.68349776  0.84327520  0.83257253    -0.18800
C468        C  0.65225918  0.83847142  0.84299135    -0.23600
C469        C  0.63351028  0.86269856  0.86323515     0.26800
C470        C  0.59931944  0.85764673  0.86689836    -0.20300
C471        C  0.58058571  0.87853281  0.88664862    -0.10000
C472        C  0.59558900  0.90503303  0.90340124    -0.10500
C473        C  0.62964607  0.91073694  0.89933341    -0.03400
C474        C  0.64852634  0.88968162  0.87961249    -0.15000
H475        H  0.76560884  0.81947959  0.75955902     0.10500
H476        H  0.73523379  0.85672135  0.79414870     0.10600
H477        H  0.67426889  0.77423656  0.82590769     0.10300
H478        H  0.70361041  0.73678812  0.78992011     0.11400
H479        H  0.69613425  0.86659896  0.83785565     0.11500
H480        H  0.63901189  0.81618136  0.83537011     0.13400
H481        H  0.58701170  0.83719815  0.85462420     0.09900
H482        H  0.55433603  0.87361239  0.88898236     0.12000
H483        H  0.64189058  0.93084059  0.91215634     0.08600
H484        H  0.67484740  0.89427252  0.87811677     0.11300
C485        C  0.41565748  0.09250594  0.90457800    -0.03300
C486        C  0.43065898  0.11861946  0.88717715    -0.05900
C487        C  0.41201604  0.13851508  0.86616850    -0.20900
C488        C  0.37794155  0.13285702  0.86198651     0.24800
C489        C  0.36302079  0.10620168  0.87899897    -0.18500
C490        C  0.38179008  0.08611967  0.89987299    -0.08500
C491        C  0.35893027  0.15646296  0.84106077    -0.18800
C492        C  0.32802592  0.15068300  0.83005137    -0.23600
C493        C  0.30927761  0.17495727  0.80970413     0.26800
C494        C  0.28334975  0.16297502  0.79051172    -0.20300
C495        C  0.26472844  0.18478951  0.77133025    -0.10000
C496        C  0.27176659  0.21956086  0.77026446    -0.10500
C497        C  0.29671570  0.23157003  0.79113493    -0.03400
C498        C  0.31543303  0.20967429  0.81022938    -0.18600
H499        H  0.45677849  0.12401092  0.89003443     0.10500
H500        H  0.42423119  0.15878393  0.85345677     0.10600
H501        H  0.33677059  0.10124114  0.87718949     0.10300
H502        H  0.36954220  0.06627370  0.91313391     0.11400
H503        H  0.37149565  0.17934401  0.83383951     0.11500
H504        H  0.31624242  0.12674242  0.83481656     0.13400
H505        H  0.27726892  0.13649595  0.79048672     0.09900
H506        H  0.24422398  0.17402006  0.75827327     0.12000
H507        H  0.30179934  0.25821026  0.79249225     0.08600
H508        H  0.33408600  0.22022694  0.82590488     0.11300
C509        C  0.59882965  0.90521555  0.09602222    -0.03300
C510        C  0.62780470  0.92037339  0.10781806    -0.05900
C511        C  0.64837474  0.90333355  0.12942083    -0.20900
C512        C  0.64074883  0.87059498  0.13938729     0.24800
C513        C  0.61133138  0.85562323  0.12815179    -0.18500
C514        C  0.59058340  0.87280342  0.10668761    -0.08500
C515        C  0.66365996  0.85331019  0.16204103    -0.18800
C516        C  0.66718644  0.81969802  0.16319999    -0.23600
C517        C  0.69009542  0.80158785  0.18543240     0.26800
C518        C  0.68675079  0.76672690  0.18840948    -0.20300
C519        C  0.70724891  0.74845674  0.20907190    -0.10000
C520        C  0.73145581  0.76445622  0.22818302    -0.10500
C521        C  0.73594142  0.79932533  0.22367346    -0.03400
C522        C  0.71542388  0.81762042  0.20289793    -0.18600
H523        H  0.63471700  0.94541220  0.10020398     0.10500
H524        H  0.67065437  0.91558752  0.13798494     0.10600
H525        H  0.60402445  0.83086106  0.13614402     0.10300
H526        H  0.56830964  0.86052553  0.09825798     0.11400
H527        H  0.67858666  0.86919426  0.17739767     0.11500
H528        H  0.65243516  0.80437567  0.14707982     0.13400
H529        H  0.66801777  0.75346997  0.17476372     0.09900
H530        H  0.70380868  0.72156656  0.21060130     0.12000
H531        H  0.75574002  0.81276900  0.23545498     0.08600
H532        H  0.72019315  0.84414126  0.20027496     0.11300
C533        C  0.41486543  0.90876173  0.90137065    -0.03300
C534        C  0.42755271  0.87788408  0.89093834    -0.05900
C535        C  0.41017001  0.85862318  0.86852206    -0.20900
C536        C  0.37963968  0.86964922  0.85619877     0.24800
C537        C  0.36743640  0.90110154  0.86589253    -0.18500
C538        C  0.38484540  0.92036965  0.88831577    -0.08500
C539        C  0.36155535  0.84763965  0.83330327    -0.18800
C540        C  0.32863408  0.84949757  0.82798961    -0.23600
C541        C  0.31035637  0.82555949  0.80710042     0.26800
C542        C  0.27626490  0.82117840  0.81185183    -0.20300
C543        C  0.25847656  0.79788453  0.79367332    -0.10000
C544        C  0.27437207  0.77747581  0.77069435    -0.10500
C545        C  0.30816388  0.78407665  0.76433537    -0.03400
C546        C  0.32590478  0.80749413  0.78242466    -0.18600
H547        H  0.45074175  0.86837601  0.90040433     0.10500
H548        H  0.42034459  0.83469275  0.86122367     0.10600
H549        H  0.34464112  0.91112554  0.85614577     0.10300
H550        H  0.37459365  0.94425753  0.89550090     0.11400
H551        H  0.37568167  0.82760040  0.82229070     0.11500
H552        H  0.31393421  0.86753749  0.84122107     0.13400
H553        H  0.26337835  0.83549661  0.83003901     0.09900
H554        H  0.23218517  0.79513347  0.79810477     0.12000
H555        H  0.32116240  0.77183933  0.74498043     0.08600
H556        H  0.35166499  0.81168917  0.77654903     0.11300
C557        C  0.77537412  0.22011269  0.72044214    -0.03300
C558        C  0.76773221  0.18574431  0.71643919    -0.05900
C559        C  0.78370738  0.16651219  0.69307526    -0.20900
C560        C  0.80764840  0.18087193  0.67296268     0.24800
C561        C  0.81407818  0.21536536  0.67541212    -0.18500
C562        C  0.79782422  0.23470965  0.69841661    -0.08500
C563        C  0.82529741  0.15934454  0.64951138    -0.18800
C564        C  0.85700748  0.16496906  0.64107392    -0.23600
C565        C  0.87627916  0.14199568  0.62025868     0.26800
C566        C  0.91063488  0.13979166  0.62487615    -0.20300
C567        C  0.92970621  0.11793810  0.60638839    -0.10000
C568        C  0.91488014  0.09825157  0.58243584    -0.10500
C569        C  0.88063004  0.10119106  0.57701386    -0.03400
C570        C  0.86142075  0.12275478  0.59586801    -0.18600
H571        H  0.74886630  0.17349281  0.73061583     0.10500
H572        H  0.77758577  0.14014982  0.69095097     0.10600
H573        H  0.83132672  0.22758751  0.65929191     0.10300
H574        H  0.80308860  0.26132911  0.69937892     0.11400
H575        H  0.81289128  0.13675363  0.64131795     0.11500
H576        H  0.87034872  0.18566873  0.65202374     0.13400
H577        H  0.92269455  0.15459843  0.64328922     0.09900
H578        H  0.95608383  0.11648991  0.61089369     0.12000
H579        H  0.86860112  0.08638146  0.55860222     0.08600
H580        H  0.83511032  0.12453163  0.59112526     0.11300
C581        C  0.73583448  0.22268069  0.76897709    -0.03300
C582        C  0.75124537  0.19834734  0.78864141    -0.05900
C583        C  0.73293597  0.17886621  0.81019355    -0.20900
C584        C  0.69865495  0.18344256  0.81354098     0.24800
C585        C  0.68327492  0.20885692  0.79530185    -0.18500
C586        C  0.70164912  0.22849313  0.77381472    -0.08500
C587        C  0.68031648  0.16064915  0.83583663    -0.18800
C588        C  0.64795138  0.16355840  0.84345554    -0.23600
C589        C  0.63045659  0.13986170  0.86539335     0.26800
C590        C  0.64119872  0.10660864  0.87028612    -0.20300
C591        C  0.62405256  0.08519270  0.89115216    -0.10000
C592        C  0.59565246  0.09636645  0.90732912    -0.10500
C593        C  0.58445738  0.12926901  0.90186272    -0.03400
C594        C  0.60163176  0.15071570  0.88107236    -0.18600
H595        H  0.77762303  0.19385445  0.78666265     0.10500
H596        H  0.74569322  0.15986063  0.82416149     0.10600
H597        H  0.65707091  0.21384774  0.79716249     0.10300
H598        H  0.68868856  0.24836342  0.76138185     0.11400
H599        H  0.69463800  0.14067389  0.84688698     0.11500
H600        H  0.63365683  0.18457380  0.83447622     0.13400
H601        H  0.66250206  0.09676178  0.85775130     0.09900
H602        H  0.63303069  0.05984522  0.89447126     0.12000
H603        H  0.56255095  0.13858378  0.91388609     0.08600
H604        H  0.59254602  0.17601728  0.87748253     0.11300
C605        C  0.23431135  0.27283263  0.22476178    -0.03300
C606        C  0.21193274  0.25467765  0.20532527    -0.05900
C607        C  0.19018194  0.27109759  0.18436614    -0.20900
C608        C  0.19065350  0.30612969  0.18140582     0.24800
C609        C  0.21484367  0.32421365  0.19846780    -0.18500
C610        C  0.23657988  0.30780429  0.21947737    -0.08500
C611        C  0.16651212  0.32259754  0.15929263    -0.18800
C612        C  0.15791411  0.35522799  0.16123955    -0.23600
C613        C  0.13476616  0.37201269  0.13841653     0.26800
C614        C  0.13752726  0.40681604  0.13392288    -0.20300
C615        C  0.11719226  0.42356380  0.11188605    -0.10000
C616        C  0.09310430  0.40597655  0.09436581    -0.10500
C617        C  0.08938624  0.37136679  0.09964305    -0.03400
C618        C  0.11007940  0.35447850  0.12137330    -0.18600
H619        H  0.21050832  0.22762089  0.20731450     0.10500
H620        H  0.17256943  0.25634973  0.17073318     0.10600
H621        H  0.21765340  0.35098480  0.19527019     0.10300
H622        H  0.25533917  0.32283956  0.23107509     0.11400
H623        H  0.15538399  0.30698859  0.14089637     0.11500
H624        H  0.16899899  0.37088591  0.17960940     0.13400
H625        H  0.15604208  0.42100213  0.14697500     0.09900
H626        H  0.12041236  0.45031016  0.10842881     0.12000
H627        H  0.07096731  0.35718071  0.08650508     0.08600
H628        H  0.10641013  0.32785061  0.12489523     0.11300
C629        C  0.09786705  0.59496118  0.08644711    -0.03300
C630        C  0.08925450  0.62907033  0.08791505    -0.05900
C631        C  0.10861832  0.65156542  0.10537419    -0.20900
C632        C  0.13650569  0.64031115  0.12228757     0.24800
C633        C  0.14519082  0.60615347  0.12092011    -0.18500
C634        C  0.12603758  0.58367534  0.10305366    -0.08500
C635        C  0.15635356  0.66490809  0.14062074    -0.18800
C636        C  0.17164527  0.65681361  0.16824290    -0.23600
C637        C  0.19076289  0.68120673  0.18756731     0.26800
C638        C  0.19328752  0.67593145  0.22069553    -0.20300
C639        C  0.21255771  0.69712379  0.23957524    -0.10000
C640        C  0.23139282  0.72328678  0.22568361    -0.10500
C641        C  0.22708180  0.72969449  0.19254421    -0.03400
C642        C  0.20732451  0.70866966  0.17367412    -0.18600
H643        H  0.06779551  0.63853964  0.07513766     0.10500
H644        H  0.10161627  0.67778783  0.10594195     0.10600
H645        H  0.16707845  0.59689576  0.13311372     0.10300
H646        H  0.13333100  0.55757216  0.10219439     0.11400
H647        H  0.15635070  0.69075799  0.13232980     0.11500
H648        H  0.16859018  0.63172678  0.17807955     0.13400
H649        H  0.18034886  0.65524419  0.23204092     0.09900
H650        H  0.21391850  0.69225433  0.26515938     0.12000
H651        H  0.23869088  0.75088836  0.18090372     0.08600
H652        H  0.20579070  0.71353512  0.14812708     0.11300
C653        C  0.77327368  0.72007533  0.22700324    -0.03300
C654        C  0.76520821  0.68580792  0.22277425    -0.05900
C655        C  0.78198273  0.66606301  0.20059653    -0.20900
C656        C  0.80706467  0.67972462  0.18151730     0.24800
C657        C  0.81393098  0.71421689  0.18380240    -0.18500
C658        C  0.79676687  0.73419554  0.20580163    -0.08500
C659        C  0.82463095  0.65717539  0.15899783    -0.18800
C660        C  0.85612162  0.66225572  0.14960565    -0.23600
C661        C  0.87525911  0.63883967  0.12886069     0.26800
C662        C  0.90844058  0.64675316  0.12223835    -0.20300
C663        C  0.92765407  0.62600165  0.10278697    -0.10000
C664        C  0.91411447  0.59674434  0.08941309    -0.10500
C665        C  0.88112352  0.58840654  0.09627948    -0.03400
C666        C  0.86181051  0.60921522  0.11568420    -0.18600
H667        H  0.74526257  0.67395236  0.23583330     0.10500
H668        H  0.77536444  0.63981669  0.19845189     0.10600
H669        H  0.83198000  0.72599120  0.16823485     0.10300
H670        H  0.80206727  0.76081182  0.20658374     0.11400
H671        H  0.81155381  0.63465662  0.15198015     0.11500
H672        H  0.86915048  0.68420430  0.15846519     0.13400
H673        H  0.91959084  0.66922762  0.13206604     0.09900
H674        H  0.95307505  0.63310070  0.09816476     0.12000
H675        H  0.87002807  0.56603352  0.08621462     0.08600
H676        H  0.83646410  0.60178663  0.11979150     0.11300
C677        C  0.10037331  0.59316352  0.90584024    -0.03300
C678        C  0.09567166  0.62802652  0.90744766    -0.05900
C679        C  0.11703356  0.64977092  0.89122982    -0.20900
C680        C  0.14291152  0.63705998  0.87247312     0.24800
C681        C  0.14745496  0.60213194  0.87058858    -0.18500
C682        C  0.12642451  0.58038150  0.88728681    -0.08500
C683        C  0.16512078  0.66081493  0.85564589    -0.18800
C684        C  0.17849859  0.65383722  0.82691999    -0.23600
C685        C  0.19863586  0.67843163  0.80887718     0.26800
C686        C  0.19635055  0.67895537  0.77539696    -0.20300
C687        C  0.21418170  0.70240027  0.75760766    -0.10000
C688        C  0.23509388  0.72607450  0.77272583    -0.10500
C689        C  0.23898289  0.72373459  0.80641169    -0.03400
C690        C  0.22046835  0.70063240  0.82428894    -0.18600
H691        H  0.07594687  0.63854856  0.92185591     0.10500
H692        H  0.11320105  0.67659046  0.89313327     0.10600
H693        H  0.16767499  0.59162102  0.85685834     0.10300
H694        H  0.13062250  0.55360563  0.88579104     0.11400
H695        H  0.16849327  0.68558650  0.86597907     0.11500
H696        H  0.17218734  0.63049320  0.81497211     0.13400
H697        H  0.18013009  0.66162316  0.76297123     0.09900
H698        H  0.21115083  0.70256791  0.73175377     0.12000
H699        H  0.25647121  0.73918626  0.81927379     0.08600
H700        H  0.22378008  0.69965936  0.85009771     0.11300
C701        C  0.91366096  0.59342569  0.89917867    -0.03300
C702        C  0.92594945  0.62391213  0.88715058    -0.05900
C703        C  0.90634480  0.64424714  0.86750752    -0.20900
C704        C  0.87396060  0.63472962  0.85925447     0.24800
C705        C  0.86194692  0.60358318  0.87043386    -0.18500
C706        C  0.88165395  0.58319993  0.89022303    -0.08500
C707        C  0.85415209  0.65841205  0.83917787    -0.18800
C708        C  0.82178275  0.65483827  0.83196238    -0.23600
C709        C  0.80361574  0.67951549  0.81170113     0.26800
C710        C  0.77709709  0.66847932  0.79277116    -0.20300
C711        C  0.76052223  0.69063311  0.77220859    -0.10000
C712        C  0.77030117  0.72465157  0.76967174    -0.10500
C713        C  0.79498636  0.73603930  0.79111570    -0.03400
C714        C  0.81175559  0.71379168  0.81141388    -0.18600
H715        H  0.95056099  0.63253734  0.89326889     0.10500
H716        H  0.91645135  0.66786708  0.85909705     0.10600
H717        H  0.83746454  0.59473278  0.86431945     0.10300
H718        H  0.87161932  0.55968503  0.89895389     0.11400
H719        H  0.86721089  0.68013636  0.82978211     0.11500
H720        H  0.80825471  0.63281824  0.83975340     0.13400
H721        H  0.76946419  0.64243009  0.79351523     0.09900
H722        H  0.73985291  0.68072990  0.75873924     0.12000
H723        H  0.80197193  0.76227104  0.79140102     0.08600
H724        H  0.83086181  0.72361665  0.82703888     0.11300
C725        C  0.09584950  0.40624476  0.90075020    -0.03300
C726        C  0.12373251  0.42260134  0.88796902    -0.05900
C727        C  0.14565926  0.40551206  0.86793564    -0.20900
C728        C  0.14053530  0.37158578  0.86078122     0.24800
C729        C  0.11219068  0.35536120  0.87291902    -0.18500
C730        C  0.08998781  0.37260473  0.89267227    -0.08500
C731        C  0.16468080  0.35419273  0.83985220    -0.18800
C732        C  0.17172815  0.32133167  0.84292722    -0.23600
C733        C  0.19454889  0.30295641  0.82120492     0.26800
C734        C  0.19179472  0.26800782  0.81943566    -0.20300
C735        C  0.21072828  0.24987142  0.79752105    -0.10000
C736        C  0.23260489  0.26618098  0.77608063    -0.10500
C737        C  0.23759564  0.30097641  0.78026633    -0.03400
C738        C  0.21861015  0.31913192  0.80227156    -0.18600
H739        H  0.12874990  0.44860693  0.89365936     0.10500
H740        H  0.16707011  0.41863948  0.85851396     0.10600
H741        H  0.10694961  0.32949018  0.86696492     0.10300
H742        H  0.06866263  0.35939170  0.90207140     0.11400
H743        H  0.17715223  0.36928881  0.82184684     0.11500
H744        H  0.15919914  0.30680353  0.86138978     0.13400
H745        H  0.17416961  0.25471349  0.83439884     0.09900
H746        H  0.20719690  0.22298241  0.79622201     0.12000
H747        H  0.25608391  0.31457557  0.76677476     0.08600
H748        H  0.22310571  0.34576553  0.80436718     0.11300
C749        C  0.77501680  0.27805891  0.23001600    -0.03300
C750        C  0.79525795  0.30135740  0.24655076    -0.05900
C751        C  0.81489518  0.32452027  0.22999288    -0.20900
C752        C  0.81507756  0.32509401  0.19639525     0.24800
C753        C  0.79392399  0.30333950  0.17962713    -0.18500
C754        C  0.77370514  0.28065064  0.19614576    -0.08500
C755        C  0.83663730  0.34927454  0.17917287    -0.18800
C756        C  0.85224426  0.34097216  0.15181712    -0.23600
C757        C  0.87360718  0.36447982  0.13357689     0.26800
C758        C  0.90043305  0.35154085  0.11624941    -0.20300
C759        C  0.91950506  0.37241343  0.09661968    -0.10000
C760        C  0.91159696  0.40655990  0.09326663    -0.10500
C761        C  0.88506126  0.41972398  0.11102805    -0.03400
C762        C  0.86630574  0.39889738  0.13117788    -0.18600
H763        H  0.79620079  0.30121423  0.27255395     0.10500
H764        H  0.83046256  0.34160001  0.24346205     0.10600
H765        H  0.79241731  0.30440553  0.15366175     0.10300
H766        H  0.75683837  0.26578952  0.18196553     0.11400
H767        H  0.84110858  0.37360349  0.19004217     0.11500
H768        H  0.85032592  0.31540822  0.14299203     0.13400
H769        H  0.90641310  0.32508210  0.11763035     0.09900
H770        H  0.93979226  0.36153029  0.08322684     0.12000
H771        H  0.87845252  0.44595590  0.10898663     0.08600
H772        H  0.84537392  0.40945952  0.14383608     0.11300
C773        C  0.78197420  0.26283226  0.76643804    -0.03300
C774        C  0.81634817  0.25599831  0.76742864    -0.05900
C775        C  0.83763255  0.27449624  0.78710241    -0.20900
C776        C  0.82543384  0.29993276  0.80698218     0.24800
C777        C  0.79102854  0.30544064  0.80789539    -0.18500
C778        C  0.76968441  0.28693437  0.78819271    -0.08500
C779        C  0.84928144  0.31901689  0.82730107    -0.18800
C780        C  0.84302761  0.34983728  0.83909416    -0.23600
C781        C  0.86658783  0.36933418  0.85945923     0.26800
C782        C  0.86039196  0.40362186  0.86416793    -0.20300
C783        C  0.88057688  0.42273525  0.88439518    -0.10000
C784        C  0.90750723  0.40799665  0.90052650    -0.10500
C785        C  0.91425061  0.37388394  0.89542074    -0.03400
C786        C  0.89392853  0.35465511  0.87528509    -0.18600
H787        H  0.82721575  0.23595713  0.75361668     0.10500
H788        H  0.86388186  0.26883097  0.78677782     0.10600
H789        H  0.78034003  0.32360201  0.82409606     0.10300
H790        H  0.74332069  0.29177939  0.78951664     0.11400
H791        H  0.87337788  0.30770948  0.83117761     0.11500
H792        H  0.81988735  0.36206966  0.83280437     0.13400
H793        H  0.83957915  0.41566130  0.85238620     0.09900
H794        H  0.87480927  0.44901334  0.88758146     0.12000
H795        H  0.93470864  0.36179875  0.90771161     0.08600
H796        H  0.89933233  0.32823233  0.87307802     0.11300
C797        C  0.72937450  0.73224457  0.72302172    -0.03300
C798        C  0.69513531  0.73941271  0.72086126    -0.05900
C799        C  0.67438829  0.72040801  0.70107542    -0.20900
C800        C  0.68737213  0.69504206  0.68161750     0.24800
C801        C  0.72166077  0.68942032  0.68164621    -0.18500
C802        C  0.74232711  0.70792312  0.70182486    -0.08500
C803        C  0.66448118  0.67346370  0.66307555    -0.18800
C804        C  0.67264449  0.65965391  0.63474542    -0.23600
C805        C  0.64971868  0.63713342  0.61739847     0.26800
C806        C  0.64706239  0.63948757  0.58388781    -0.20300
C807        C  0.62461038  0.61921798  0.56725353    -0.10000
C808        C  0.60512407  0.59567344  0.58384977    -0.10500
C809        C  0.60894576  0.59223910  0.61721616    -0.03400
C810        C  0.63086228  0.61298990  0.63391067    -0.18600
H811        H  0.68387911  0.75946022  0.73433478     0.10500
H812        H  0.64803721  0.72559270  0.70090928     0.10600
H813        H  0.73245317  0.66982655  0.66708260     0.10300
H814        H  0.76857175  0.70227438  0.70192588     0.11400
H815        H  0.63976314  0.66948707  0.67269967     0.11500
H816        H  0.69588511  0.66628488  0.62323426     0.13400
H817        H  0.66173424  0.65763868  0.57070537     0.09900
H818        H  0.62241662  0.62207680  0.54145991     0.12000
H819        H  0.59432725  0.57416169  0.63053238     0.08600
H820        H  0.63314112  0.61011116  0.65970359     0.11300
C821        C  0.27232919  0.26697266  0.72750053    -0.03300
C822        C  0.25667354  0.29166814  0.70828015    -0.05900
C823        C  0.27465349  0.31132334  0.68655204    -0.20900
C824        C  0.30890142  0.30704655  0.68323693     0.24800
C825        C  0.32464909  0.28180951  0.70123962    -0.18500
C826        C  0.30661702  0.26173982  0.72262397    -0.08500
C827        C  0.32739062  0.32833878  0.65997472    -0.18800
C828        C  0.35890962  0.33804524  0.66504743    -0.23600
C829        C  0.37704121  0.36080085  0.64291583     0.26800
C830        C  0.39914861  0.38427502  0.65592417    -0.20300
C831        C  0.41689647  0.40598152  0.63591251    -0.10000
C832        C  0.41369437  0.40392667  0.60238182    -0.10500
C833        C  0.39216957  0.37992116  0.58919929    -0.03400
C834        C  0.37363877  0.35877630  0.60931122    -0.18600
H835        H  0.23024230  0.29581509  0.71026884     0.10500
H836        H  0.26178231  0.33017088  0.67248692     0.10600
H837        H  0.35081228  0.27684693  0.69812883     0.10300
H838        H  0.31983765  0.24168198  0.73446342     0.11400
H839        H  0.31404388  0.33810180  0.63927028     0.11500
H840        H  0.37108674  0.33119585  0.68742223     0.13400
H841        H  0.40242882  0.38604880  0.68170357     0.09900
H842        H  0.43372963  0.42387086  0.64670803     0.12000
H843        H  0.38954649  0.37770433  0.56338622     0.08600
H844        H  0.35728286  0.34039327  0.59859819     0.11300
C845        C  0.60088795  0.40300709  0.41588737    -0.03300
C846        C  0.61385468  0.37263038  0.42750073    -0.05900
C847        C  0.63428502  0.35293233  0.40821492    -0.20900
C848        C  0.64235254  0.36298385  0.37682838     0.24800
C849        C  0.63002466  0.39387883  0.36538742    -0.18500
C850        C  0.60941094  0.41358832  0.38473605    -0.08500
C851        C  0.66409491  0.34053131  0.35758280    -0.18800
C852        C  0.66956845  0.34356765  0.32572082    -0.23600
C853        C  0.69126062  0.32022983  0.30734265     0.26800
C854        C  0.68839779  0.31899431  0.27377082    -0.20300
C855        C  0.70830428  0.29737581  0.25574511    -0.10000
C856        C  0.73127619  0.27564332  0.27075831    -0.10500
C857        C  0.73514803  0.27844855  0.30441880    -0.03400
C858        C  0.71543952  0.30018162  0.32234239    -0.18600
H859        H  0.60802637  0.36372788  0.45140297     0.10500
H860        H  0.64362020  0.32948429  0.41785579     0.10600
H861        H  0.63622089  0.40317629  0.34174337     0.10300
H862        H  0.59997135  0.43703692  0.37522359     0.11400
H863        H  0.67498256  0.31957649  0.37044557     0.11500
H864        H  0.65682930  0.36286044  0.31210377     0.13400
H865        H  0.67062250  0.33478427  0.26139253     0.09900
H866        H  0.70558291  0.29728233  0.22984876     0.12000
H867        H  0.75418562  0.26493483  0.31730382     0.08600
H868        H  0.72014629  0.30175897  0.34785811     0.11300
C869        C  0.40445853  0.59109562  0.41243604    -0.03300
C870        C  0.39894771  0.62427144  0.42245232    -0.05900
C871        C  0.37985447  0.64617188  0.40379786    -0.20900
C872        C  0.36595255  0.63550995  0.37465823     0.24800
C873        C  0.37051453  0.60190525  0.36517940    -0.18500
C874        C  0.38971684  0.58001358  0.38382142    -0.08500
C875        C  0.34641068  0.65994908  0.35527110    -0.18800
C876        C  0.34135794  0.65667735  0.32344187    -0.23600
C877        C  0.32079795  0.68011671  0.30409053     0.26800
C878        C  0.30572668  0.66789714  0.27619627    -0.20300
C879        C  0.28504540  0.68833724  0.25779138    -0.10000
C880        C  0.27816898  0.72172039  0.26706359    -0.10500
C881        C  0.29635492  0.73483658  0.29318634    -0.03400
C882        C  0.31671567  0.71413476  0.31199057    -0.18600
H883        H  0.40984501  0.63353539  0.44450868     0.10500
H884        H  0.37639431  0.67172510  0.41190801     0.10600
H885        H  0.35911792  0.59218930  0.34360403     0.10300
H886        H  0.39307809  0.55447690  0.37572040     0.11400
H887        H  0.33623416  0.68149013  0.36771583     0.11500
H888        H  0.35160884  0.63526097  0.31091488     0.13400
H889        H  0.30961825  0.64217391  0.26877570     0.09900
H890        H  0.27473493  0.67765027  0.23613576     0.12000
H891        H  0.29378669  0.76097070  0.29973135     0.08600
H892        H  0.32948909  0.72495419  0.33234912     0.11300
C893        C  0.59611562  0.59328607  0.41064983    -0.03300
C894        C  0.59749024  0.62758094  0.41819254    -0.05900
C895        C  0.61651695  0.64952593  0.39975152    -0.20900
C896        C  0.63516222  0.63757368  0.37387655     0.24800
C897        C  0.63429441  0.60313174  0.36653369    -0.18500
C898        C  0.61476477  0.58117355  0.38474036    -0.08500
C899        C  0.65359206  0.66203960  0.35398736    -0.18800
C900        C  0.68171370  0.65438174  0.33847420    -0.23600
C901        C  0.69937875  0.67889469  0.31791746     0.26800
C902        C  0.73374496  0.67625697  0.31461581    -0.20300
C903        C  0.75082216  0.69778058  0.29400334    -0.10000
C904        C  0.73380221  0.72150509  0.27479043    -0.10500
C905        C  0.69942519  0.72526905  0.27975507    -0.03400
C906        C  0.68241362  0.70394855  0.30068378    -0.18600
H907        H  0.58323686  0.63766568  0.43795660     0.10500
H908        H  0.61663294  0.67597119  0.40568066     0.10600
H909        H  0.64782382  0.59329921  0.34620618     0.10300
H910        H  0.61408022  0.55486514  0.37841418     0.11400
H911        H  0.64437394  0.68762424  0.35331542     0.11500
H912        H  0.69285102  0.62981565  0.34182618     0.13400
H913        H  0.74741416  0.65740281  0.32794380     0.09900
H914        H  0.77742007  0.69497514  0.29189807     0.12000
H915        H  0.68531586  0.74456196  0.26766515     0.08600
H916        H  0.65582103  0.70665191  0.30265343     0.11300
C917        C  0.73614369  0.26636501  0.72309766    -0.03300
C918        C  0.71162930  0.25184667  0.70324861    -0.05900
C919        C  0.69352437  0.27111411  0.68140943    -0.20900
C920        C  0.69950878  0.30554710  0.67811669     0.24800
C921        C  0.72465331  0.32020921  0.69687200    -0.18500
C922        C  0.74279183  0.30091818  0.71886708    -0.08500
C923        C  0.67942865  0.32473635  0.65429868    -0.18800
C924        C  0.67642366  0.35839352  0.65433989    -0.23600
C925        C  0.65397849  0.37727414  0.63235898     0.26800
C926        C  0.64484228  0.40997255  0.64095945    -0.20300
C927        C  0.62243744  0.42821997  0.62224121    -0.10000
C928        C  0.60863716  0.41421414  0.59432978    -0.10500
C929        C  0.61875412  0.38203873  0.58485383    -0.03400
C930        C  0.64130716  0.36375045  0.60357784    -0.18600
H931        H  0.70655046  0.22520998  0.70466425     0.10500
H932        H  0.67473610  0.25893971  0.66692830     0.10600
H933        H  0.73126650  0.34632176  0.69408176     0.10300
H934        H  0.76283403  0.31320295  0.73137582     0.11400
H935        H  0.66488912  0.31011877  0.63747435     0.11500
H936        H  0.68893738  0.37283854  0.67275008     0.13400
H937        H  0.65450639  0.42123077  0.66270693     0.09900
H938        H  0.61558291  0.45309417  0.63008593     0.12000
H939        H  0.60886684  0.37078810  0.56321138     0.08600
H940        H  0.64858845  0.33916977  0.59531370     0.11300
C941        C  0.40294780  0.59307478  0.58982417    -0.03300
C942        C  0.38678235  0.62058224  0.57565185    -0.05900
C943        C  0.36476286  0.64007728  0.59340497    -0.20900
C944        C  0.35841640  0.63276894  0.62580788     0.24800
C945        C  0.37377483  0.60450930  0.63981199    -0.18500
C946        C  0.39588078  0.58491913  0.62195178    -0.08500
C947        C  0.33566158  0.65540999  0.64366373    -0.18800
C948        C  0.33451615  0.65760548  0.67596450    -0.23600
C949        C  0.31360789  0.68221747  0.69369199     0.26800
C950        C  0.31981225  0.68713105  0.72648525    -0.20300
C951        C  0.30093549  0.70975716  0.74427289    -0.10000
C952        C  0.27570420  0.72913767  0.72973542    -0.10500
C953        C  0.26889637  0.72325837  0.69691763    -0.03400
C954        C  0.28751953  0.70023344  0.67921490    -0.18600
H955        H  0.39125856  0.62737111  0.55085358     0.10500
H956        H  0.35304344  0.66139234  0.58184505     0.10600
H957        H  0.36880516  0.59724653  0.66438062     0.10300
H958        H  0.40774229  0.56364081  0.63340365     0.11400
H959        H  0.32103029  0.67251967  0.62920183     0.11500
H960        H  0.35095635  0.64208148  0.69029142     0.13400
H961        H  0.33925840  0.67320411  0.73854678     0.09900
H962        H  0.30598509  0.71220134  0.76972934     0.12000
H963        H  0.24826187  0.73512718  0.68487834     0.08600
H964        H  0.28057007  0.69619966  0.65446160     0.11300
C965        C  0.40725883  0.39789936  0.41945046    -0.03300
C966        C  0.40078456  0.36446292  0.42821477    -0.05900
C967        C  0.38263642  0.34355712  0.40781278    -0.20900
C968        C  0.37001198  0.35584390  0.37866822     0.24800
C969        C  0.37583758  0.38949143  0.37019508    -0.18500
C970        C  0.39436489  0.41027393  0.39037683    -0.08500
C971        C  0.35247993  0.33264144  0.35672865    -0.18800
C972        C  0.32743722  0.34264002  0.33765655    -0.23600
C973        C  0.31025161  0.31948744  0.31546091     0.26800
C974        C  0.27610531  0.32283783  0.31078281    -0.20300
C975        C  0.25932808  0.30155007  0.28974923    -0.10000
C976        C  0.27646926  0.27746707  0.27126654    -0.10500
C977        C  0.31088253  0.27386549  0.27680466    -0.03400
C978        C  0.32750405  0.29470638  0.29844858    -0.18600
H979        H  0.41048392  0.35406844  0.45034646     0.10500
H980        H  0.37858398  0.31765301  0.41471456     0.10600
H981        H  0.36703768  0.39948160  0.34751814     0.10300
H982        H  0.39911521  0.43588359  0.38293856     0.11400
H983        H  0.35946453  0.30632277  0.35729158     0.11500
H984        H  0.31805674  0.36809581  0.33954548     0.13400
H985        H  0.26225446  0.34158355  0.32391639     0.09900
H986        H  0.23271717  0.30415080  0.28749168     0.12000
H987        H  0.32518521  0.25443441  0.26530433     0.08600
H988        H  0.35395772  0.29159393  0.30163503     0.11300
loop_ 
_geom_bond_atom_site_label_1 
_geom_bond_atom_site_label_2 
_geom_bond_distance 
_geom_bond_site_symmetry_2 
_ccdc_geom_bond_type 
C1           N19   1.351       .  A
C1           C38   1.462       .  S
C1          C965   1.478       .  S
N2           N19   1.324       .  A
N2           N24   1.321       .  A
N2          Co39   2.087       .  S
C3           N28   1.338       .  A
C3           C41   1.460       .  S
C3           H48   1.081       .  S
H4           C45   1.082       .  S
C5           N29   1.337       .  A
C5            C9   1.460       .  S
C5           H34   1.081       .  S
Co6          N24   2.084       .  S
Co6          N14   2.091       .  S
Co6          N46   2.083       .  S
Co6          N22   2.093       .  S
Co6         Cl50   2.446       .  S
N7           C45   1.340       .  A
N7           N14   1.321       .  A
N7           Co8   2.085       .  S
Co8          N11   2.090       .  S
Co8          N28   2.077       .  S
Co8          N15   2.085       .  S
Co8         Cl50   2.457       .  S
C9           N47   1.353       .  A
C9          C941   1.480       .  S
N10          N17   1.319       .  A
N10          N40   1.322       .  A
N10         Co43   2.073       .  S
N11          N29   1.319       .  A
N11          N47   1.327       .  A
N12          C41   1.353       .  A
N12          N22   1.326       .  A
H13          C38   1.081       .  S
N14          N35   1.326       .  A
N15          N33   1.318       .  A
N15          N20   1.325       .  A
C16          N20   1.351       .  A
C16          C44   1.458       .  S
C16         C808   1.474       .  S
N17          C32   1.344       .  A
N17         Co39   2.094       .  S
C18          N46   1.339       .  A
C18          C21   1.462       .  S
C18          H52   1.081       .  S
C21          N42   1.352       .  A
C21         C845   1.481       .  S
N22          N28   1.319       .  A
N23          C49   1.344       .  A
N23          N25   1.319       .  A
N23         Co39   2.088       .  S
N24          C38   1.340       .  A
N25          N53   1.320       .  A
N25         Co43   2.072       .  S
H26          C49   1.081       .  S
H27          C44   1.081       .  S
N29         Co43   2.077       .  S
N30          N42   1.326       .  A
N30          N46   1.320       .  A
N30         Co39   2.089       .  S
C31          N35   1.351       .  A
C31          C45   1.461       .  S
C31         C832   1.478       .  S
C32          C51   1.467       .  S
C32          H36   1.081       .  S
N33          C44   1.339       .  A
N33         Co43   2.073       .  S
C37          N53   1.347       .  A
C37          C49   1.465       .  S
C37         C893   1.474       .  S
Co39        Cl50   2.458       .  S
N40          C51   1.348       .  A
C41         C928   1.480       .  S
Co43        Cl50   2.437       .  S
C51         C869   1.480       .  S
C54          N72   1.347       .  A
C54          C91   1.466       .  S
C54         C725   1.476       .  S
N55          N72   1.321       .  A
N55          N77   1.320       .  A
N55         Co92   2.077       .  S
C56          N81   1.343       .  A
C56          C94   1.464       .  S
C56         H101   1.081       .  S
H57          C98   1.081       .  S
C58          N82   1.337       .  A
C58          C62   1.461       .  S
C58          H87   1.081       .  S
Co59         N77   2.090   1_655  S
Co59         N67   2.096       .  S
Co59         N99   2.090   1_656  S
Co59         N75   2.085   1_556  S
Co59       Cl103   2.455   1_655  S
N60          C98   1.339       .  A
N60          N67   1.320       .  A
N60         Co61   2.081       .  S
Co61         N64   2.091       .  S
Co61         N81   2.091   1_556  S
Co61         N68   2.089   1_556  S
Co61       Cl103   2.453   1_655  S
C62         N100   1.353       .  A
C62         C701   1.481       .  S
N63          N70   1.318       .  A
N63          N93   1.322       .  A
N63         Co96   2.074       .  S
N64          N82   1.319       .  A
N64         N100   1.326       .  A
N65          C94   1.350       .  A
N65          N75   1.323       .  A
H66          C91   1.081       .  S
N67          N88   1.327       .  A
N68          N86   1.318       .  A
N68          N73   1.326       .  A
C69          N73   1.354       .  A
C69          C97   1.458       .  S
C69         C664   1.477       .  S
N70          C85   1.341       .  A
N70         Co92   2.082       .  S
C71          N99   1.342       .  A
C71          C74   1.463       .  S
C71         H105   1.081       .  S
C74          N95   1.350       .  A
C74         C616   1.479       .  S
N75          N81   1.321       .  A
N76         C102   1.342       .  A
N76          N78   1.319       .  A
N76         Co92   2.083   1_554  S
N77          C91   1.343       .  A
N78         N106   1.321       .  A
N78         Co96   2.072   1_554  S
H79         C102   1.081       .  S
H80          C97   1.081       .  S
N82         Co96   2.076   1_655  S
N83          N95   1.324       .  A
N83          N99   1.320       .  A
N83         Co92   2.085   1_554  S
C84          N88   1.354       .  A
C84          C98   1.460       .  S
C84         C784   1.482       .  S
C85         C104   1.462       .  S
C85          H89   1.081       .  S
N86          C97   1.336       .  A
N86         Co96   2.070   1_654  S
C90         N106   1.348       .  A
C90         C102   1.464       .  S
C90         C629   1.474       .  S
Co92       Cl103   2.447       .  S
N93         C104   1.349       .  A
C94         C760   1.479       .  S
Co96       Cl103   2.442       .  S
C104        C677   1.473       .  S
C107        C557   1.553       .  S
C107        C581   1.553       .  S
C107        C773   1.555       .  S
C107        C917   1.552       .  S
C108        N126   1.353       .  A
C108        C145   1.460       .  S
C108        C485   1.481       .  S
N109        N126   1.327       .  A
N109        N131   1.320       .  A
N109       Co146   2.094   1_556  S
C110        N135   1.343       .  A
C110        C148   1.465       .  S
C110        H155   1.081       .  S
H111        C152   1.081       .  S
C112        N136   1.336       .  A
C112        C116   1.458       .  S
C112        H141   1.081       .  S
Co113       N131   2.081   1_554  S
Co113       N121   2.084   1_554  S
Co113       N153   2.089       .  S
Co113       N129   2.081       .  S
Co113      Cl157   2.444   1_545  S
N114        C152   1.342       .  A
N114        N121   1.320       .  A
N114       Co115   2.088   1_546  S
Co115       N118   2.098   1_554  S
Co115       N135   2.092   1_565  S
Co115       N122   2.084       .  S
Co115      Cl157   2.459       .  S
C116        N154   1.355       .  A
C116        C472   1.480       .  S
N117        N124   1.319       .  A
N117        N147   1.325       .  A
N117       Co150   2.089       .  S
N118        N136   1.320       .  A
N118        N154   1.328       .  A
N119        C148   1.350       .  A
N119        N129   1.323       .  A
H120        C145   1.081       .  S
N121        N142   1.324       .  A
N122        N140   1.320       .  A
N122        N127   1.324       .  A
C123        N127   1.350       .  A
C123        C151   1.464       .  S
C123        C509   1.481       .  S
N124        C139   1.340       .  A
N124       Co146   2.080   1_566  S
C125        N153   1.342       .  A
C125        C128   1.464       .  S
C125        H159   1.081       .  S
C128        N149   1.351       .  A
C128        C413   1.482       .  S
N129        N135   1.320       .  A
N130        C156   1.342       .  A
N130        N132   1.320       .  A
N130       Co146   2.091   1_565  S
N131        C145   1.339       .  A
N132        N160   1.323       .  A
N132       Co150   2.079   1_554  S
H133        C156   1.081       .  S
H134        C151   1.081       .  S
N136       Co150   2.074       .  S
N137        N149   1.324       .  A
N137        N153   1.319       .  A
N137       Co146   2.083       .  S
C138        N142   1.350       .  A
C138        C152   1.465       .  S
C138        C592   1.481       .  S
C139        C158   1.462       .  S
C139        H143   1.081       .  S
N140        C151   1.343       .  A
N140       Co150   2.089   1_554  S
C144        N160   1.349       .  A
C144        C156   1.465       .  S
C144        C448   1.480       .  S
Co146      Cl157   2.458   1_545  S
N147        C158   1.352       .  A
C148        C400   1.481       .  S
Co150      Cl157   2.445   1_556  S
C158        C533   1.480       .  S
C161        C365   1.551       .  S
C161        C544   1.552       .  S
C161        C688   1.549       .  S
C161        C952   1.552       .  S
C162        N180   1.350       .  A
C162        C199   1.463       .  S
C162        C352   1.478       .  S
N163        N180   1.323       .  A
N163        N185   1.319       .  A
N163       Co200   2.083   1_645  S
C164        N189   1.344       .  A
C164        C202   1.467       .  S
C164        H209   1.081       .  S
H165        C206   1.081       .  S
C166        N190   1.338       .  A
C166        C170   1.460       .  S
C166        H195   1.081       .  S
Co167       N185   2.082   1_565  S
Co167       N175   2.089   1_565  S
Co167       N207   2.087       .  S
Co167       N183   2.080       .  S
Co167      Cl211   2.454   1_655  S
N168        C206   1.339       .  A
N168        N175   1.320       .  A
N168       Co169   2.082   1_645  S
Co169       N172   2.092   1_565  S
Co169       N189   2.097   1_455  S
Co169       N176   2.085       .  S
Co169      Cl211   2.452       .  S
C170        N208   1.353       .  A
C170        C232   1.479       .  S
N171        N178   1.319       .  A
N171        N201   1.326       .  A
N171       Co204   2.089   1_545  S
N172        N190   1.320       .  A
N172        N208   1.326       .  A
N173        C202   1.349       .  A
N173        N183   1.323       .  A
H174        C199   1.081       .  S
N175        N196   1.326       .  A
N176        N194   1.320       .  A
N176        N181   1.325       .  A
C177        N181   1.351       .  A
C177        C205   1.461       .  S
C177        C376   1.478       .  S
N178        C193   1.337       .  A
N178       Co200   2.075   1_545  S
C179        N207   1.342       .  A
C179        C182   1.464       .  S
C179        H213   1.081       .  S
C182        N203   1.349       .  A
C182        C328   1.477       .  S
N183        N189   1.320       .  A
N184        C210   1.341       .  A
N184        N186   1.319       .  A
N184       Co200   2.086       .  S
N185        C199   1.341       .  A
N186        N214   1.324       .  A
N186       Co204   2.082       .  S
H187        C210   1.081       .  S
H188        C205   1.081       .  S
N190       Co204   2.078   1_545  S
N191        N203   1.322       .  A
N191        N207   1.319       .  A
N191       Co200   2.076   1_655  S
C192        N196   1.352       .  A
C192        C206   1.460       .  S
C192        C568   1.478       .  S
C193        C212   1.459       .  S
C193        H197   1.081       .  S
N194        C205   1.339       .  A
N194       Co204   2.083       .  S
C198        N214   1.350       .  A
C198        C210   1.463       .  S
C198        C304   1.479       .  S
Co200      Cl211   2.445       .  S
N201        C212   1.353       .  A
C202        C280   1.482       .  S
Co204      Cl211   2.450       .  S
C212        C256   1.478       .  S
C215        C317   1.550       .  S
C215        C520   1.552       .  S
C215        C653   1.551       .  S
C215        C904   1.549       .  S
C216        C245   1.553       .  S
C216        C424   1.553       .  S
C216        C605   1.554       .  S
C216        C976   1.551       .  S
C217        C341   1.552       .  S
C217        C389   1.555       .  S
C217        C749   1.555       .  S
C217        C856   1.554       .  S
C218        C293   1.552       .  S
C218        C437   1.552       .  S
C218        C640   1.548       .  S
C218        C880   1.552       .  S
C219        C221   1.554       .  S
C219        C496   1.556       .  S
C219        C736   1.552       .  S
C219        C821   1.556       .  S
C220        C269   1.556       .  S
C220        C461   1.555       .  S
C220        C712   1.554       .  S
C220        C797   1.551       .  S
C221        C222   1.415       .  A
C221        C226   1.412       .  A
C222        H235   1.079       .  S
C222        C223   1.396       .  A
C223        H236   1.084       .  S
C223        C224   1.400       .  A
C224        C225   1.407       .  A
C224        C227   1.488       .  S
C225        H237   1.081       .  S
C225        C226   1.397       .  A
C226        H238   1.083       .  S
C227        C228   1.346       .  D
C227        H239   1.085       .  S
C228        C229   1.486       .  S
C228        H240   1.085       .  S
C229        C230   1.402       .  A
C229        C234   1.409       .  A
C230        H241   1.084       .  S
C230        C231   1.396       .  A
C231        H242   1.082       .  S
C231        C232   1.404       .  A
C232        C233   1.405       .  A
C233        H243   1.083       .  S
C233        C234   1.400       .  A
C234        H244   1.081       .  S
C245        C246   1.413       .  A
C245        C250   1.415       .  A
C246        H259   1.083       .  S
C246        C247   1.396       .  A
C247        H260   1.083       .  S
C247        C248   1.400       .  A
C248        C249   1.405       .  A
C248        C251   1.487       .  S
C249        H261   1.082       .  S
C249        C250   1.397       .  A
C250        H262   1.079       .  S
C251        C252   1.348       .  D
C251        H263   1.082       .  S
C252        C253   1.490       .  S
C252        H264   1.085       .  S
C253        C254   1.404       .  A
C253        C258   1.411       .  A
C254        H265   1.083       .  S
C254        C255   1.395       .  A
C255        H266   1.082       .  S
C255        C256   1.403       .  A
C256        C257   1.403       .  A
C257        H267   1.083       .  S
C257        C258   1.400       .  A
C258        H268   1.079       .  S
C269        C270   1.414       .  A
C269        C274   1.414       .  A
C270        H283   1.079       .  S
C270        C271   1.397       .  A
C271        H284   1.084       .  S
C271        C272   1.401       .  A
C272        C273   1.406       .  A
C272        C275   1.489       .  S
C273        H285   1.081       .  S
C273        C274   1.400       .  A
C274        H286   1.083       .  S
C275        C276   1.347       .  D
C275        H287   1.085       .  S
C276        C277   1.490       .  S
C276        H288   1.085       .  S
C277        C278   1.403       .  A
C277        C282   1.410       .  A
C278        H289   1.083       .  S
C278        C279   1.398       .  A
C279        H290   1.083       .  S
C279        C280   1.405       .  A
C280        C281   1.404       .  A
C281        H291   1.082       .  S
C281        C282   1.401       .  A
C282        H292   1.081       .  S
C293        C294   1.413       .  A
C293        C298   1.413       .  A
C294        H307   1.083       .  S
C294        C295   1.395       .  A
C295        H308   1.083       .  S
C295        C296   1.400       .  A
C296        C297   1.405       .  A
C296        C299   1.485       .  S
C297        H309   1.082       .  S
C297        C298   1.399       .  A
C298        H310   1.079       .  S
C299        C300   1.347       .  D
C299        H311   1.086       .  S
C300        C301   1.485       .  S
C300        H312   1.085       .  S
C301        C302   1.403       .  A
C301        C306   1.407       .  A
C302        H313   1.083       .  S
C302        C303   1.398       .  A
C303        H314   1.083       .  S
C303        C304   1.405       .  A
C304        C305   1.404       .  A
C305        H315   1.082       .  S
C305        C306   1.399       .  A
C306        H316   1.082       .  S
C317        C318   1.412       .  A
C317        C322   1.413       .  A
C318        H331   1.083       .  S
C318        C319   1.394       .  A
C319        H332   1.083       .  S
C319        C320   1.401       .  A
C320        C321   1.409       .  A
C320        C323   1.491       .  S
C321        H333   1.079       .  S
C321        C322   1.401       .  A
C322        H334   1.079       .  S
C323        C324   1.348       .  D
C323        H335   1.085       .  S
C324        C325   1.488       .  S
C324        H336   1.083       .  S
C325        C326   1.403       .  A
C325        C330   1.409       .  A
C326        H337   1.083       .  S
C326        C327   1.397       .  A
C327        H338   1.083       .  S
C327        C328   1.404       .  A
C328        C329   1.403       .  A
C329        H339   1.082       .  S
C329        C330   1.399       .  A
C330        H340   1.081       .  S
C341        C342   1.413       .  A
C341        C346   1.412       .  A
C342        H355   1.083       .  S
C342        C343   1.396       .  A
C343        H356   1.083       .  S
C343        C344   1.402       .  A
C344        C345   1.408       .  A
C344        C347   1.492       .  S
C345        H357   1.078       .  S
C345        C346   1.397       .  A
C346        H358   1.079       .  S
C347        C348   1.348       .  D
C347        H359   1.085       .  S
C348        C349   1.485       .  S
C348        H360   1.081       .  S
C349        C350   1.403       .  A
C349        C354   1.408       .  A
C350        H361   1.083       .  S
C350        C351   1.396       .  A
C351        H362   1.083       .  S
C351        C352   1.404       .  A
C352        C353   1.405       .  A
C353        H363   1.082       .  S
C353        C354   1.400       .  A
C354        H364   1.082       .  S
C365        C366   1.416       .  A
C365        C370   1.411       .  A
C366        H379   1.080       .  S
C366        C367   1.395       .  A
C367        H380   1.084       .  S
C367        C368   1.399       .  A
C368        C369   1.406       .  A
C368        C371   1.485       .  S
C369        H381   1.082       .  S
C369        C370   1.398       .  A
C370        H382   1.083       .  S
C371        C372   1.347       .  D
C371        H383   1.083       .  S
C372        C373   1.489       .  S
C372        H384   1.086       .  S
C373        C374   1.404       .  A
C373        C378   1.410       .  A
C374        H385   1.083       .  S
C374        C375   1.396       .  A
C375        H386   1.082       .  S
C375        C376   1.403       .  A
C376        C377   1.404       .  A
C377        H387   1.083       .  S
C377        C378   1.399       .  A
C378        H388   1.080       .  S
C389        C390   1.413       .  A
C389        C394   1.414       .  A
C390        H403   1.083       .  S
C390        C391   1.398       .  A
C391        H404   1.083       .  S
C391        C392   1.402       .  A
C392        C393   1.407       .  A
C392        C395   1.493       .  S
C393        H405   1.080       .  S
C393        C394   1.398       .  A
C394        H406   1.079       .  S
C395        C396   1.349       .  D
C395        H407   1.085       .  S
C396        C397   1.488       .  S
C396        H408   1.084       .  S
C397        C398   1.403       .  A
C397        C402   1.409       .  A
C398        H409   1.083       .  S
C398        C399   1.396       .  A
C399        H410   1.083       .  S
C399        C400   1.404       .  A
C400        C401   1.405       .  A
C401        H411   1.082       .  S
C401        C402   1.402       .  A
C402        H412   1.081       .  S
C413        C414   1.404       .  A
C413        C418   1.405       .  A
C414        H427   1.083       .  S
C414        C415   1.399       .  A
C415        H428   1.083       .  S
C415        C416   1.405       .  A
C416        C417   1.409       .  A
C416        C419   1.492       .  S
C417        H429   1.081       .  S
C417        C418   1.401       .  A
C418        H430   1.082       .  S
C419        C420   1.351       .  D
C419        H431   1.082       .  S
C420        C421   1.496       .  S
C420        H432   1.085       .  S
C421        C422   1.403       .  A
C421        C426   1.409       .  A
C422        H433   1.083       .  S
C422        C423   1.398       .  A
C423        H434   1.083       .  S
C423        C424   1.411       .  A
C424        C425   1.413       .  A
C425        H435   1.080       .  S
C425        C426   1.400       .  A
C426        H436   1.079       .  S
C437        C438   1.413       .  A
C437        C442   1.414       .  A
C438        H451   1.080       .  S
C438        C439   1.395       .  A
C439        H452   1.084       .  S
C439        C440   1.400       .  A
C440        C441   1.407       .  A
C440        C443   1.488       .  S
C441        H453   1.081       .  S
C441        C442   1.401       .  A
C442        H454   1.083       .  S
C443        C444   1.347       .  D
C443        H455   1.085       .  S
C444        C445   1.490       .  S
C444        H456   1.085       .  S
C445        C446   1.403       .  A
C445        C450   1.410       .  A
C446        H457   1.083       .  S
C446        C447   1.399       .  A
C447        H458   1.083       .  S
C447        C448   1.405       .  A
C448        C449   1.403       .  A
C449        H459   1.082       .  S
C449        C450   1.399       .  A
C450        H460   1.081       .  S
C461        C462   1.414       .  A
C461        C466   1.414       .  A
C462        H475   1.079       .  S
C462        C463   1.397       .  A
C463        H476   1.084       .  S
C463        C464   1.400       .  A
C464        C465   1.406       .  A
C464        C467   1.489       .  S
C465        H477   1.081       .  S
C465        C466   1.399       .  A
C466        H478   1.083       .  S
C467        C468   1.347       .  D
C467        H479   1.083       .  S
C468        C469   1.491       .  S
C468        H480   1.085       .  S
C469        C470   1.403       .  A
C469        C474   1.411       .  A
C470        H481   1.083       .  S
C470        C471   1.396       .  A
C471        H482   1.082       .  S
C471        C472   1.404       .  A
C472        C473   1.404       .  A
C473        H483   1.083       .  S
C473        C474   1.402       .  A
C474        H484   1.080       .  S
C485        C486   1.404       .  A
C485        C490   1.404       .  A
C486        H499   1.082       .  S
C486        C487   1.398       .  A
C487        H500   1.083       .  S
C487        C488   1.404       .  A
C488        C489   1.411       .  A
C488        C491   1.492       .  S
C489        H501   1.080       .  S
C489        C490   1.401       .  A
C490        H502   1.083       .  S
C491        C492   1.348       .  D
C491        H503   1.085       .  S
C492        C493   1.490       .  S
C492        H504   1.084       .  S
C493        C494   1.400       .  A
C493        C498   1.406       .  A
C494        H505   1.084       .  S
C494        C495   1.397       .  A
C495        H506   1.079       .  S
C495        C496   1.416       .  A
C496        C497   1.413       .  A
C497        H507   1.083       .  S
C497        C498   1.399       .  A
C498        H508   1.081       .  S
C509        C510   1.405       .  A
C509        C514   1.405       .  A
C510        H523   1.083       .  S
C510        C511   1.398       .  A
C511        H524   1.084       .  S
C511        C512   1.403       .  A
C512        C513   1.409       .  A
C512        C515   1.487       .  S
C513        H525   1.082       .  S
C513        C514   1.401       .  A
C514        H526   1.082       .  S
C515        C516   1.348       .  D
C515        H527   1.083       .  S
C516        C517   1.492       .  S
C516        H528   1.086       .  S
C517        C518   1.401       .  A
C517        C522   1.408       .  A
C518        H529   1.083       .  S
C518        C519   1.396       .  A
C519        H530   1.083       .  S
C519        C520   1.412       .  A
C520        C521   1.414       .  A
C521        H531   1.080       .  S
C521        C522   1.400       .  A
C522        H532   1.080       .  S
C533        C534   1.404       .  A
C533        C538   1.405       .  A
C534        H547   1.083       .  S
C534        C535   1.398       .  A
C535        H548   1.083       .  S
C535        C536   1.404       .  A
C536        C537   1.408       .  A
C536        C539   1.488       .  S
C537        H549   1.081       .  S
C537        C538   1.399       .  A
C538        H550   1.082       .  S
C539        C540   1.349       .  D
C539        H551   1.085       .  S
C540        C541   1.488       .  S
C540        H552   1.085       .  S
C541        C542   1.401       .  A
C541        C546   1.405       .  A
C542        H553   1.083       .  S
C542        C543   1.397       .  A
C543        H554   1.083       .  S
C543        C544   1.413       .  A
C544        C545   1.414       .  A
C545        H555   1.080       .  S
C545        C546   1.398       .  A
C546        H556   1.081       .  S
C557        C558   1.415       .  A
C557        C562   1.414       .  A
C558        H571   1.080       .  S
C558        C559   1.399       .  A
C559        H572   1.083       .  S
C559        C560   1.401       .  A
C560        C561   1.403       .  A
C560        C563   1.485       .  S
C561        H573   1.082       .  S
C561        C562   1.396       .  A
C562        H574   1.083       .  S
C563        C564   1.346       .  D
C563        H575   1.086       .  S
C564        C565   1.484       .  S
C564        H576   1.086       .  S
C565        C566   1.402       .  A
C565        C570   1.407       .  A
C566        H577   1.083       .  S
C566        C567   1.397       .  A
C567        H578   1.082       .  S
C567        C568   1.404       .  A
C568        C569   1.405       .  A
C569        H579   1.083       .  S
C569        C570   1.401       .  A
C570        H580   1.082       .  S
C581        C582   1.411       .  A
C581        C586   1.414       .  A
C582        H595   1.083       .  S
C582        C583   1.397       .  A
C583        H596   1.083       .  S
C583        C584   1.403       .  A
C584        C585   1.408       .  A
C584        C587   1.494       .  S
C585        H597   1.079       .  S
C585        C586   1.400       .  A
C586        H598   1.080       .  S
C587        C588   1.350       .  D
C587        H599   1.085       .  S
C588        C589   1.490       .  S
C588        H600   1.083       .  S
C589        C590   1.409       .  A
C589        C594   1.404       .  A
C590        H601   1.081       .  S
C590        C591   1.400       .  A
C591        H602   1.082       .  S
C591        C592   1.404       .  A
C592        C593   1.405       .  A
C593        H603   1.083       .  S
C593        C594   1.399       .  A
C594        H604   1.083       .  S
C605        C606   1.412       .  A
C605        C610   1.414       .  A
C606        H619   1.083       .  S
C606        C607   1.398       .  A
C607        H620   1.083       .  S
C607        C608   1.402       .  A
C608        C609   1.406       .  A
C608        C611   1.490       .  S
C609        H621   1.081       .  S
C609        C610   1.399       .  A
C610        H622   1.080       .  S
C611        C612   1.349       .  D
C611        H623   1.085       .  S
C612        C613   1.489       .  S
C612        H624   1.084       .  S
C613        C614   1.404       .  A
C613        C618   1.409       .  A
C614        H625   1.083       .  S
C614        C615   1.398       .  A
C615        H626   1.083       .  S
C615        C616   1.403       .  A
C616        C617   1.405       .  A
C617        H627   1.082       .  S
C617        C618   1.401       .  A
C618        H628   1.081       .  S
C629        C630   1.405       .  A
C629        C634   1.403       .  A
C630        H643   1.083       .  S
C630        C631   1.395       .  A
C631        H644   1.083       .  S
C631        C632   1.400       .  A
C632        C633   1.408       .  A
C632        C635   1.479       .  S
C633        H645   1.082       .  S
C633        C634   1.398       .  A
C634        H646   1.082       .  S
C635        C636   1.342       .  D
C635        H647   1.086       .  S
C636        C637   1.480       .  S
C636        H648   1.087       .  S
C637        C638   1.397       .  A
C637        C642   1.406       .  A
C638        H649   1.084       .  S
C638        C639   1.392       .  A
C639        H650   1.083       .  S
C639        C640   1.413       .  A
C640        C641   1.412       .  A
C641        H651   1.080       .  S
C641        C642   1.399       .  A
C642        H652   1.082       .  S
C653        C654   1.416       .  A
C653        C658   1.412       .  A
C654        H667   1.080       .  S
C654        C655   1.392       .  A
C655        H668   1.084       .  S
C655        C656   1.397       .  A
C656        C657   1.406       .  A
C656        C659   1.482       .  S
C657        H669   1.082       .  S
C657        C658   1.400       .  A
C658        H670   1.083       .  S
C659        C660   1.345       .  D
C659        H671   1.082       .  S
C660        C661   1.490       .  S
C660        H672   1.086       .  S
C661        C662   1.403       .  A
C661        C666   1.412       .  A
C662        H673   1.084       .  S
C662        C663   1.396       .  A
C663        H674   1.082       .  S
C663        C664   1.404       .  A
C664        C665   1.402       .  A
C665        H675   1.083       .  S
C665        C666   1.398       .  A
C666        H676   1.079       .  S
C677        C678   1.405       .  A
C677        C682   1.403       .  A
C678        H691   1.083       .  S
C678        C679   1.396       .  A
C679        H692   1.084       .  S
C679        C680   1.401       .  A
C680        C681   1.407       .  A
C680        C683   1.479       .  S
C681        H693   1.082       .  S
C681        C682   1.398       .  A
C682        H694   1.083       .  S
C683        C684   1.343       .  D
C683        H695   1.087       .  S
C684        C685   1.477       .  S
C684        H696   1.087       .  S
C685        C686   1.396       .  A
C685        C690   1.404       .  A
C686        H697   1.084       .  S
C686        C687   1.392       .  A
C687        H698   1.083       .  S
C687        C688   1.414       .  A
C688        C689   1.413       .  A
C689        H699   1.079       .  S
C689        C690   1.399       .  A
C690        H700   1.083       .  S
C701        C702   1.404       .  A
C701        C706   1.405       .  A
C702        H715   1.081       .  S
C702        C703   1.395       .  A
C703        H716   1.083       .  S
C703        C704   1.403       .  A
C704        C705   1.411       .  A
C704        C707   1.491       .  S
C705        H717   1.079       .  S
C705        C706   1.402       .  A
C706        H718   1.083       .  S
C707        C708   1.348       .  D
C707        H719   1.086       .  S
C708        C709   1.487       .  S
C708        H720   1.083       .  S
C709        C710   1.400       .  A
C709        C714   1.405       .  A
C710        H721   1.084       .  S
C710        C711   1.398       .  A
C711        H722   1.080       .  S
C711        C712   1.416       .  A
C712        C713   1.412       .  A
C713        H723   1.083       .  S
C713        C714   1.397       .  A
C714        H724   1.082       .  S
C725        C726   1.405       .  A
C725        C730   1.404       .  A
C726        H739   1.083       .  S
C726        C727   1.396       .  A
C727        H740   1.084       .  S
C727        C728   1.401       .  A
C728        C729   1.408       .  A
C728        C731   1.482       .  S
C729        H741   1.082       .  S
C729        C730   1.399       .  A
C730        H742   1.082       .  S
C731        C732   1.346       .  D
C731        H743   1.084       .  S
C732        C733   1.487       .  S
C732        H744   1.086       .  S
C733        C734   1.400       .  A
C733        C738   1.407       .  A
C734        H745   1.083       .  S
C734        C735   1.395       .  A
C735        H746   1.083       .  S
C735        C736   1.413       .  A
C736        C737   1.413       .  A
C737        H747   1.079       .  S
C737        C738   1.399       .  A
C738        H748   1.081       .  S
C749        C750   1.416       .  A
C749        C754   1.414       .  A
C750        H763   1.083       .  S
C750        C751   1.398       .  A
C751        H764   1.083       .  S
C751        C752   1.398       .  A
C752        C753   1.403       .  A
C752        C755   1.482       .  S
C753        H765   1.083       .  S
C753        C754   1.398       .  A
C754        H766   1.079       .  S
C755        C756   1.344       .  D
C755        H767   1.086       .  S
C756        C757   1.482       .  S
C756        H768   1.087       .  S
C757        C758   1.401       .  A
C757        C762   1.407       .  A
C758        H769   1.084       .  S
C758        C759   1.396       .  A
C759        H770   1.083       .  S
C759        C760   1.405       .  A
C760        C761   1.405       .  A
C761        H771   1.082       .  S
C761        C762   1.401       .  A
C762        H772   1.082       .  S
C773        C774   1.415       .  A
C773        C778   1.413       .  A
C774        H787   1.079       .  S
C774        C775   1.398       .  A
C775        H788   1.083       .  S
C775        C776   1.401       .  A
C776        C777   1.407       .  A
C776        C779   1.490       .  S
C777        H789   1.081       .  S
C777        C778   1.400       .  A
C778        H790   1.083       .  S
C779        C780   1.349       .  D
C779        H791   1.084       .  S
C780        C781   1.493       .  S
C780        H792   1.085       .  S
C781        C782   1.404       .  A
C781        C786   1.411       .  A
C782        H793   1.083       .  S
C782        C783   1.398       .  A
C783        H794   1.082       .  S
C783        C784   1.405       .  A
C784        C785   1.404       .  A
C785        H795   1.083       .  S
C785        C786   1.401       .  A
C786        H796   1.080       .  S
C797        C798   1.414       .  A
C797        C802   1.414       .  A
C798        H811   1.079       .  S
C798        C799   1.398       .  A
C799        H812   1.084       .  S
C799        C800   1.400       .  A
C800        C801   1.402       .  A
C800        C803   1.480       .  S
C801        H813   1.082       .  S
C801        C802   1.395       .  A
C802        H814   1.083       .  S
C803        C804   1.344       .  D
C803        H815   1.087       .  S
C804        C805   1.478       .  S
C804        H816   1.086       .  S
C805        C806   1.401       .  A
C805        C810   1.405       .  A
C806        H817   1.083       .  S
C806        C807   1.398       .  A
C807        H818   1.083       .  S
C807        C808   1.405       .  A
C808        C809   1.403       .  A
C809        H819   1.083       .  S
C809        C810   1.397       .  A
C810        H820   1.083       .  S
C821        C822   1.415       .  A
C821        C826   1.415       .  A
C822        H835   1.083       .  S
C822        C823   1.398       .  A
C823        H836   1.083       .  S
C823        C824   1.400       .  A
C824        C825   1.404       .  A
C824        C827   1.487       .  S
C825        H837   1.083       .  S
C825        C826   1.400       .  A
C826        H838   1.079       .  S
C827        C828   1.346       .  D
C827        H839   1.087       .  S
C828        C829   1.484       .  S
C828        H840   1.086       .  S
C829        C830   1.402       .  A
C829        C834   1.407       .  A
C830        H841   1.083       .  S
C830        C831   1.397       .  A
C831        H842   1.083       .  S
C831        C832   1.404       .  A
C832        C833   1.405       .  A
C833        H843   1.083       .  S
C833        C834   1.403       .  A
C834        H844   1.083       .  S
C845        C846   1.404       .  A
C845        C850   1.405       .  A
C846        H859   1.081       .  S
C846        C847   1.396       .  A
C847        H860   1.084       .  S
C847        C848   1.404       .  A
C848        C849   1.410       .  A
C848        C851   1.490       .  S
C849        H861   1.080       .  S
C849        C850   1.402       .  A
C850        H862   1.083       .  S
C851        C852   1.350       .  D
C851        H863   1.084       .  S
C852        C853   1.491       .  S
C852        H864   1.083       .  S
C853        C854   1.403       .  A
C853        C858   1.406       .  A
C854        H865   1.083       .  S
C854        C855   1.399       .  A
C855        H866   1.083       .  S
C855        C856   1.413       .  A
C856        C857   1.414       .  A
C857        H867   1.079       .  S
C857        C858   1.395       .  A
C858        H868   1.080       .  S
C869        C870   1.406       .  A
C869        C874   1.403       .  A
C870        H883   1.083       .  S
C870        C871   1.398       .  A
C871        H884   1.083       .  S
C871        C872   1.402       .  A
C872        C873   1.410       .  A
C872        C875   1.489       .  S
C873        H885   1.081       .  S
C873        C874   1.399       .  A
C874        H886   1.082       .  S
C875        C876   1.347       .  D
C875        H887   1.085       .  S
C876        C877   1.485       .  S
C876        H888   1.084       .  S
C877        C878   1.398       .  A
C877        C882   1.406       .  A
C878        H889   1.084       .  S
C878        C879   1.394       .  A
C879        H890   1.081       .  S
C879        C880   1.415       .  A
C880        C881   1.412       .  A
C881        H891   1.083       .  S
C881        C882   1.401       .  A
C882        H892   1.082       .  S
C893        C894   1.405       .  A
C893        C898   1.403       .  A
C894        H907   1.083       .  S
C894        C895   1.393       .  A
C895        H908   1.084       .  S
C895        C896   1.400       .  A
C896        C897   1.408       .  A
C896        C899   1.479       .  S
C897        H909   1.082       .  S
C897        C898   1.400       .  A
C898        H910   1.083       .  S
C899        C900   1.343       .  D
C899        H911   1.086       .  S
C900        C901   1.480       .  S
C900        H912   1.086       .  S
C901        C902   1.398       .  A
C901        C906   1.405       .  A
C902        H913   1.083       .  S
C902        C903   1.394       .  A
C903        H914   1.083       .  S
C903        C904   1.414       .  A
C904        C905   1.411       .  A
C905        H915   1.080       .  S
C905        C906   1.396       .  A
C906        H916   1.082       .  S
C917        C918   1.413       .  A
C917        C922   1.414       .  A
C918        H931   1.083       .  S
C918        C919   1.394       .  A
C919        H932   1.083       .  S
C919        C920   1.400       .  A
C920        C921   1.407       .  A
C920        C923   1.489       .  S
C921        H933   1.081       .  S
C921        C922   1.400       .  A
C922        H934   1.079       .  S
C923        C924   1.347       .  D
C923        H935   1.084       .  S
C924        C925   1.489       .  S
C924        H936   1.084       .  S
C925        C926   1.403       .  A
C925        C930   1.410       .  A
C926        H937   1.083       .  S
C926        C927   1.396       .  A
C927        H938   1.081       .  S
C927        C928   1.405       .  A
C928        C929   1.404       .  A
C929        H939   1.083       .  S
C929        C930   1.401       .  A
C930        H940   1.081       .  S
C941        C942   1.404       .  A
C941        C946   1.405       .  A
C942        H955   1.082       .  S
C942        C943   1.395       .  A
C943        H956   1.084       .  S
C943        C944   1.403       .  A
C944        C945   1.410       .  A
C944        C947   1.489       .  S
C945        H957   1.081       .  S
C945        C946   1.402       .  A
C946        H958   1.083       .  S
C947        C948   1.348       .  D
C947        H959   1.083       .  S
C948        C949   1.492       .  S
C948        H960   1.084       .  S
C949        C950   1.401       .  A
C949        C954   1.408       .  A
C950        H961   1.083       .  S
C950        C951   1.396       .  A
C951        H962   1.083       .  S
C951        C952   1.413       .  A
C952        C953   1.413       .  A
C953        H963   1.080       .  S
C953        C954   1.399       .  A
C954        H964   1.080       .  S
C965        C966   1.405       .  A
C965        C970   1.404       .  A
C966        H979   1.082       .  S
C966        C967   1.398       .  A
C967        H980   1.084       .  S
C967        C968   1.402       .  A
C968        C969   1.406       .  A
C968        C971   1.481       .  S
C969        H981   1.083       .  S
C969        C970   1.397       .  A
C970        H982   1.083       .  S
C971        C972   1.344       .  D
C971        H983   1.087       .  S
C972        C973   1.480       .  S
C972        H984   1.086       .  S
C973        C974   1.398       .  A
C973        C978   1.403       .  A
C974        H985   1.083       .  S
C974        C975   1.395       .  A
C975        H986   1.083       .  S
C975        C976   1.414       .  A
C976        C977   1.415       .  A
C977        H987   1.080       .  S
C977        C978   1.398       .  A
C978        H988   1.083       .  S
