geometry optimzed in LAMMPS
_audit_creation_date              2020-11-30 
_audit_creation_method            'lammps2cif' 
_symmetry_space_group_name_H-M    'P1' 
_symmetry_Int_Tables_number       1 
_symmetry_cell_setting            triclinic 
loop_ 
_symmetry_equiv_pos_as_xyz 
  x,y,z 
_cell_length_a                    100.83372425 
_cell_length_b                    100.18879609198109 
_cell_length_c                    38.46107847840475 
_cell_angle_alpha                 90.89340783747545 
_cell_angle_beta                  90.61924901087379 
_cell_angle_gamma                 90.0628992963083 
loop_ 
_atom_site_label 
_atom_site_type_symbol 
_atom_site_fract_x 
_atom_site_fract_y 
_atom_site_fract_z 
_atom_site_charge 
C1          C  0.72004856  0.83121917  0.31494853     0.87100
C2          C  0.72687862  0.84404668  0.30337656    -0.53100
C3          C  0.73788250  0.84758973  0.32253308     0.10100
C4          C  0.74085667  0.83779727  0.35238268     0.21000
C5          C  0.73092307  0.82062713  0.31495045    -0.53800
C6          C  0.74178239  0.82394582  0.33457749     0.10200
C7          C  0.71699817  0.83370357  0.35371342    -0.53400
C8          C  0.72791347  0.83705907  0.37372075     0.10700
H9          H  0.72330328  0.84957821  0.28119716     0.15200
H10         H  0.74979448  0.84039556  0.36801357     0.01000
H11         H  0.73003961  0.81124013  0.30057985     0.15500
H12         H  0.70715026  0.83273738  0.36433626     0.15300
C13         C  0.66318142  0.78032744  0.17402747     0.87100
C14         C  0.67431226  0.77002800  0.17174279    -0.53100
C15         C  0.67098204  0.75870148  0.15375013     0.10100
C16         C  0.65674473  0.75863736  0.13942433     0.21000
C17         C  0.65910788  0.78282295  0.13620939    -0.53800
C18         C  0.65590447  0.77145654  0.11766286     0.10200
C19         C  0.65139840  0.77277442  0.18939553    -0.53400
C20         C  0.64798564  0.76134043  0.17137274     0.10700
H21         H  0.68406551  0.77163050  0.18337769     0.15200
H22         H  0.65420668  0.74936293  0.12485250     0.01000
H23         H  0.65944695  0.79266719  0.12491576     0.15500
H24         H  0.64631885  0.77617238  0.21252544     0.15300
C25         C  0.83798470  0.75951694  0.32062528     0.87100
C26         C  0.83179834  0.74738573  0.30157453    -0.53100
C27         C  0.81992471  0.74329110  0.31483566     0.10100
C28         C  0.81558331  0.75164844  0.34698801     0.21000
C29         C  0.82710539  0.77016501  0.32039788    -0.53800
C30         C  0.81539503  0.76611340  0.33417293     0.10200
C31         C  0.83910910  0.75536223  0.35875353    -0.53400
C32         C  0.82738083  0.75143582  0.37303331     0.10700
H33         H  0.83626861  0.74271923  0.27902723     0.15200
H34         H  0.80606362  0.74854819  0.35852220     0.01000
H35         H  0.82860633  0.78010516  0.31024695     0.15500
H36         H  0.84830945  0.75614985  0.37356363     0.15300
C37         C  0.76011967  0.68930444  0.18183915     0.87100
C38         C  0.74909257  0.69959229  0.17799342    -0.53100
C39         C  0.73825870  0.69514443  0.15990211     0.10100
C40         C  0.73925672  0.68056754  0.14754469     0.21000
C41         C  0.75349852  0.67722579  0.19823376    -0.53800
C42         C  0.74248712  0.67260400  0.18072756     0.10200
C43         C  0.76307445  0.68480966  0.14409770    -0.53400
C44         C  0.75205413  0.68038559  0.12572610     0.10700
H45         H  0.74996006  0.70973950  0.18817965     0.15200
H46         H  0.73027226  0.67706977  0.13329852     0.01000
H47         H  0.75724455  0.67292903  0.22208951     0.15500
H48         H  0.77276310  0.68581217  0.13253914     0.15300
C49         C  0.81389251  0.73886786  0.67554112     0.87100
C50         C  0.80495800  0.75099453  0.68136713    -0.53100
C51         C  0.80870256  0.76212611  0.66402871     0.10100
C52         C  0.82135602  0.76011594  0.64240056     0.21000
C53         C  0.81424300  0.73689479  0.63573875    -0.53800
C54         C  0.81822050  0.74800320  0.61833737     0.10200
C55         C  0.82790558  0.74379956  0.68559661    -0.53400
C56         C  0.83190007  0.75503643  0.66862574     0.10700
H57         H  0.79615954  0.75062749  0.69737193     0.15200
H58         H  0.82430187  0.76917612  0.62820439     0.01000
H59         H  0.81185572  0.72753384  0.62253688     0.15500
H60         H  0.83389406  0.73891860  0.70520551     0.15300
C61         C  0.76275982  0.68520560  0.82134989     0.87100
C62         C  0.75672456  0.67186228  0.80923381    -0.53100
C63         C  0.74554764  0.66823198  0.82666511     0.10100
C64         C  0.74153671  0.67839718  0.85531331     0.21000
C65         C  0.75142780  0.69526681  0.81900090    -0.53800
C66         C  0.74038262  0.69187276  0.83692512     0.10200
C67         C  0.76516527  0.68350280  0.86075902    -0.53400
C68         C  0.75400248  0.67996367  0.87882833     0.10700
H69         H  0.76086308  0.66598069  0.78808822     0.15200
H70         H  0.73244974  0.67563967  0.86940416     0.01000
H71         H  0.75227551  0.70457952  0.80507792     0.15500
H72         H  0.77475197  0.68518088  0.87311925     0.15300
C73         C  0.66582696  0.77964909  0.81760311     0.87100
C74         C  0.66158048  0.78195071  0.85541240    -0.53100
C75         C  0.65857317  0.77046653  0.87262520     0.10100
C76         C  0.65982206  0.75770322  0.84967980     0.21000
C77         C  0.67723372  0.76961694  0.81983843    -0.53800
C78         C  0.67417864  0.75812218  0.83659637     0.10200
C79         C  0.65428788  0.77186294  0.80080226    -0.53400
C80         C  0.65103966  0.76033410  0.81734032     0.10700
H81         H  0.66152807  0.79178934  0.86754898     0.15200
H82         H  0.65742854  0.74835451  0.86320106     0.01000
H83         H  0.68695267  0.77153445  0.80906525     0.15500
H84         H  0.64897919  0.77534276  0.77812700     0.15300
C85         C  0.71800269  0.83285707  0.67956441     0.87100
C86         C  0.71570095  0.83345651  0.64005957    -0.53100
C87         C  0.72672523  0.83677409  0.62149802     0.10100
C88         C  0.73917053  0.83915072  0.64489512     0.21000
C89         C  0.72957983  0.82312268  0.68430016    -0.53800
C90         C  0.74068081  0.82628570  0.66614186     0.10200
C91         C  0.72374731  0.84656201  0.68959702    -0.53400
C92         C  0.73500720  0.84992422  0.67211996     0.10700
H93         H  0.70612908  0.83157945  0.62793455     0.15200
H94         H  0.74824706  0.84169222  0.63051035     0.01000
H95         H  0.72895999  0.81439924  0.70062939     0.15500
H96         H  0.71945931  0.85270434  0.71000177     0.15300
O97         O  0.90906663  0.80829218  0.18749997    -0.57200
C98         C  0.92644989  0.82612377  0.11025049     0.75500
O99         O  0.91275419  0.85001876  0.21194954    -0.58300
C100        C  0.90686664  0.80927166  0.21975080     0.75400
C101        C  0.94956201  0.82882371  0.20813143     0.77800
Cd102      Cd  0.92214141  0.82929945  0.18390392     1.37500
O103        O  0.92037133  0.81744239  0.12755855    -0.57200
O104        O  0.94301307  0.81833174  0.20120023    -0.56000
C105        C  0.90364360  0.85144307  0.18938405     0.77800
O106        O  0.94330527  0.83973803  0.20581667    -0.58400
O107        O  0.93077085  0.83623377  0.12696956    -0.56800
O108        O  0.91215684  0.81910704  0.23564786    -0.56800
O109        O  0.90356244  0.84318325  0.16424747    -0.56000
O110        O  0.07423626  0.81480940  0.12900875    -0.57200
C111        C  0.08673400  0.80843072  0.22262205     0.75500
O112        O  0.07909032  0.84905056  0.20485641    -0.58300
C113        C  0.06649375  0.82179298  0.11066679     0.75400
C114        C  0.04270021  0.82722128  0.21012102     0.77800
Cd115      Cd  0.06997747  0.82688030  0.18428948     1.37500
O116        O  0.07939657  0.80465370  0.19746156    -0.57200
O117        O  0.04856811  0.81650880  0.20188568    -0.56000
C118        C  0.08684566  0.85028131  0.17933807     0.77800
O119        O  0.04959921  0.83776745  0.20878361    -0.58400
O120        O  0.08587943  0.82059922  0.23155827    -0.56800
O121        O  0.06004749  0.83081613  0.12643393    -0.56800
O122        O  0.08645477  0.84108163  0.15653320    -0.56000
O123        O  0.19729559  0.92068147  0.17470747    -0.57200
C124        C  0.17914458  0.93698569  0.09497558     0.75500
O125        O  0.15593098  0.92497110  0.19570988    -0.58300
C126        C  0.19619894  0.91893234  0.20704489     0.75400
C127        C  0.17753551  0.96152595  0.19080104     0.77800
Cd128      Cd  0.17657323  0.93381349  0.16859639     1.37500
O129        O  0.18797171  0.93118267  0.11283999    -0.57200
O130        O  0.18771052  0.95520199  0.18107487    -0.56000
C131        C  0.15381035  0.91619839  0.17221925     0.77800
O132        O  0.16682754  0.95494850  0.19190842    -0.58400
O133        O  0.16925871  0.94159908  0.11120853    -0.56800
O134        O  0.18633843  0.92432794  0.22159787    -0.56800
O135        O  0.16194875  0.91579431  0.14752128    -0.56000
O136        O  0.19294425  0.08721078  0.11993754    -0.57200
C137        C  0.20240004  0.09541221  0.21691302     0.75500
O138        O  0.16181854  0.09210295  0.20421252    -0.58300
C139        C  0.18498040  0.08020412  0.10163913     0.75400
C140        C  0.17965509  0.05508678  0.19386337     0.77800
Cd141      Cd  0.18173839  0.08267264  0.17562628     1.37500
O142        O  0.20454984  0.09078266  0.18672870    -0.57200
O143        O  0.19065375  0.06076933  0.18910539    -0.56000
C144        C  0.15959576  0.10058603  0.18082102     0.77800
O145        O  0.16941218  0.06232897  0.19223802    -0.58400
O146        O  0.19082947  0.09384371  0.22854963    -0.56800
O147        O  0.17573322  0.07443921  0.11750700    -0.56800
O148        O  0.16755660  0.10075449  0.15567292    -0.56000
O149        O  0.91863890  0.19486748  0.14625596    -0.57200
C150        C  0.91003831  0.20448903  0.23213086     0.75500
O151        O  0.91496188  0.16670620  0.23488894    -0.58300
C152        C  0.92682277  0.18886350  0.12688730     0.75400
C153        C  0.95418123  0.18489774  0.22200253     0.77800
Cd154      Cd  0.92633107  0.18409189  0.20055555     1.37500
O155        O  0.91358110  0.20471997  0.20074408    -0.57200
O156        O  0.94736557  0.19541780  0.21920753    -0.56000
C157        C  0.91122481  0.15976237  0.20886909     0.77800
O158        O  0.94805086  0.17403638  0.21687564    -0.58400
O159        O  0.91443482  0.19496182  0.25019660    -0.56800
O160        O  0.93463818  0.18076980  0.14147616    -0.56800
O161        O  0.91476102  0.16379719  0.17943456    -0.56000
O162        O  0.08643553  0.20915559  0.19767018    -0.57200
C163        C  0.06971470  0.19120810  0.12084557     0.75500
O164        O  0.08520245  0.16815877  0.22141817    -0.58300
C165        C  0.09161460  0.20727338  0.22727882     0.75400
C166        C  0.04729882  0.18656894  0.22034832     0.77800
Cd167      Cd  0.07425243  0.18795368  0.19429818     1.37500
O168        O  0.07385468  0.20094270  0.13935835    -0.57200
O169        O  0.05320408  0.19758351  0.21660976    -0.56000
C170        C  0.09250908  0.16579714  0.19544947     0.77800
O171        O  0.05406520  0.17617988  0.21445490    -0.58400
O172        O  0.06733872  0.18046414  0.13643952    -0.56800
O173        O  0.08807802  0.19687034  0.24295725    -0.56800
O174        O  0.09098243  0.17326101  0.16957043    -0.56000
O175        O  0.79034693  0.92259710  0.21324654    -0.57200
C176        C  0.80983048  0.93582557  0.13204497     0.75500
O177        O  0.82284671  0.95408566  0.23040684    -0.58300
C178        C  0.79269369  0.91743387  0.24248369     0.75400
C179        C  0.83539244  0.91586020  0.20757198     0.77800
Cd180      Cd  0.81238694  0.93327399  0.20651061     1.37500
O181        O  0.80280038  0.92774915  0.14884674    -0.57200
O182        O  0.82657628  0.91555649  0.18406142    -0.56000
C183        C  0.81242515  0.96111054  0.22937663     0.77800
O184        O  0.83404361  0.92467671  0.23128182    -0.58400
O185        O  0.81760825  0.94324296  0.14970277    -0.56800
O186        O  0.80376550  0.92031339  0.25649415    -0.56800
O187        O  0.80186288  0.95510881  0.22032509    -0.56000
O188        O  0.80524799  0.10297032  0.20652131    -0.57200
C189        C  0.81590366  0.07838876  0.13253459     0.75500
O190        O  0.83685939  0.09286887  0.24381324    -0.58300
C191        C  0.80037121  0.10148681  0.23637858     0.75400
C192        C  0.81664673  0.05493226  0.22903677     0.77800
Cd193      Cd  0.81882407  0.08236077  0.20671401     1.37500
O194        O  0.80707871  0.08447903  0.14974940    -0.57200
O195        O  0.80664579  0.06133079  0.21826800    -0.56000
C196        C  0.84396333  0.09567119  0.21797708     0.77800
O197        O  0.82739116  0.06140562  0.23173820    -0.58400
O198        O  0.82578608  0.07415350  0.14950721    -0.56800
O199        O  0.80371162  0.09103166  0.25231710    -0.56800
O200        O  0.83961314  0.09200752  0.18849483    -0.56000
O201        O  0.80438183  0.92263405  0.86898963    -0.57200
C202        C  0.79340236  0.91388182  0.77245119     0.75500
O203        O  0.82503618  0.94947473  0.79239055    -0.58300
C204        C  0.81088744  0.93124176  0.88662843     0.75400
C205        C  0.83753677  0.91271844  0.80678839     0.77800
Cd206      Cd  0.81378300  0.92881335  0.81183768     1.37500
O207        O  0.79119629  0.91894043  0.80218086    -0.57200
O208        O  0.83049333  0.91326953  0.83372863    -0.56000
C209        C  0.81467760  0.95655826  0.79121435     0.77800
O210        O  0.83377361  0.91975354  0.78148837    -0.58400
O211        O  0.80482127  0.91595001  0.76035517    -0.56800
O212        O  0.81848814  0.93876775  0.86983936    -0.56800
O213        O  0.80389414  0.95072335  0.79783906    -0.56000
O214        O  0.81024689  0.08445475  0.87101041    -0.57200
C215        C  0.80053343  0.09577371  0.78580503     0.75500
O216        O  0.83794550  0.08982824  0.78085091    -0.58300
C217        C  0.81692958  0.07627627  0.88876340     0.75400
C218        C  0.81814173  0.05034463  0.79302197     0.77800
Cd219      Cd  0.82051564  0.07824192  0.81510614     1.37500
O220        O  0.80044087  0.09238951  0.81731805    -0.57200
O221        O  0.80812723  0.05738461  0.80024550    -0.56000
C222        C  0.84507206  0.09312882  0.80685112     0.77800
O223        O  0.82917285  0.05633995  0.79341191    -0.58400
O224        O  0.80954097  0.09067004  0.76713752    -0.56800
O225        O  0.82539804  0.06931020  0.87266987    -0.56800
O226        O  0.84123432  0.08909108  0.83601546    -0.56000
O227        O  0.18799239  0.92572518  0.83288707    -0.57200
C228        C  0.19548667  0.91342167  0.73875959     0.75500
O229        O  0.15628605  0.92073594  0.74858654    -0.58300
C230        C  0.18040400  0.93328013  0.85036311     0.75400
C231        C  0.17768467  0.95840496  0.75507379     0.77800
Cd232      Cd  0.17692754  0.93052326  0.77621219     1.37500
O233        O  0.19859532  0.91922830  0.76714977    -0.57200
O234        O  0.18811891  0.95186162  0.76138196    -0.56000
C235        C  0.15289201  0.91454385  0.77558786     0.77800
O236        O  0.16692611  0.95191452  0.75599736    -0.58400
O237        O  0.18405216  0.91592593  0.72666894    -0.56800
O238        O  0.17168043  0.93960727  0.83354440    -0.56800
O239        O  0.16028008  0.91606186  0.80205972    -0.56000
O240        O  0.20224123  0.09267575  0.77861241    -0.57200
C241        C  0.18386564  0.07804677  0.85693105     0.75500
O242        O  0.15913726  0.08935027  0.75971029    -0.58300
C243        C  0.20156974  0.09500398  0.74647324     0.75400
C244        C  0.18104047  0.05253180  0.76167230     0.77800
Cd245      Cd  0.18107455  0.08074802  0.78282667     1.37500
O246        O  0.19318580  0.08265256  0.83892587    -0.57200
O247        O  0.19158530  0.05868469  0.76994521    -0.56000
C248        C  0.15873418  0.09922879  0.78070530     0.77800
O249        O  0.17055872  0.05947737  0.76115592    -0.58400
O250        O  0.17346344  0.07443977  0.84067756    -0.56800
O251        O  0.19147196  0.09048834  0.73025032    -0.56800
O252        O  0.16851181  0.10056033  0.80122256    -0.56000
O253        O  0.90165616  0.20251671  0.80896006    -0.57200
C254        C  0.92592009  0.19228372  0.88298436     0.75500
O255        O  0.90917813  0.17034972  0.77545879    -0.58300
C256        C  0.90372147  0.20773233  0.77979333     0.75400
C257        C  0.94921800  0.18805265  0.78396876     0.77800
Cd258      Cd  0.92178535  0.18793516  0.80918227     1.37500
O259        O  0.91882414  0.20020716  0.86552635    -0.57200
O260        O  0.94367175  0.19835546  0.79650902    -0.56000
C261        C  0.90708630  0.16308985  0.80148218     0.77800
O262        O  0.94191971  0.17781704  0.78056256    -0.58400
O263        O  0.93121700  0.18275937  0.86634354    -0.56800
O264        O  0.91421260  0.20410818  0.76446883    -0.56800
O265        O  0.91210272  0.16703785  0.83001602    -0.56000
O266        O  0.07253975  0.19671663  0.85820242    -0.57200
C267        C  0.08536540  0.20383698  0.76280907     0.75500
O268        O  0.07928473  0.16258064  0.77841546    -0.58300
C269        C  0.06799561  0.18733072  0.87623204     0.75400
C270        C  0.04271494  0.18455591  0.78264286     0.77800
Cd271      Cd  0.07073303  0.18442136  0.80228953     1.37500
O272        O  0.08317940  0.20554895  0.79487825    -0.57200
O273        O  0.04895362  0.19496040  0.79214017    -0.56000
C274        C  0.08940338  0.16251338  0.79829078     0.77800
O275        O  0.04950954  0.17395533  0.78017566    -0.58400
O276        O  0.08028153  0.19353525  0.74857015    -0.56800
O277        O  0.06464340  0.17673053  0.86009275    -0.56800
O278        O  0.09049053  0.17212660  0.81975324    -0.56000
O279        O  0.91933197  0.81286153  0.84802494    -0.57200
C280        C  0.90505224  0.80542730  0.75331701     0.75500
O281        O  0.91226491  0.84552424  0.76763768    -0.58300
C282        C  0.92614198  0.82127641  0.86550971     0.75400
C283        C  0.94883816  0.82564869  0.76677101     0.77800
Cd284      Cd  0.92178054  0.82455322  0.79173529     1.37500
O285        O  0.91075901  0.80244184  0.78162224    -0.57200
O286        O  0.94307443  0.81469859  0.77248007    -0.56000
C287        C  0.90494438  0.84791289  0.79355428     0.77800
O288        O  0.94188052  0.83606683  0.77008695    -0.58400
O289        O  0.90754874  0.81691050  0.74181769    -0.56800
O290        O  0.93126946  0.83069204  0.84878850    -0.56800
O291        O  0.90559532  0.83974187  0.81819412    -0.56000
O292        O  0.07881936  0.80266878  0.77976878    -0.57200
C293        C  0.06663026  0.82114542  0.86587507     0.75500
O294        O  0.07795409  0.84590239  0.76339174    -0.58300
C295        C  0.08392307  0.80550388  0.75089135     0.75400
C296        C  0.04176102  0.82599570  0.76822462     0.77800
Cd297      Cd  0.06924746  0.82525614  0.79150483     1.37500
O298        O  0.07481204  0.81438515  0.84813243    -0.57200
O299        O  0.04800792  0.81518299  0.77216789    -0.56000
C300        C  0.08606168  0.84875024  0.78774868     0.77800
O301        O  0.04830826  0.83662507  0.77342256    -0.58400
O302        O  0.05976177  0.82955989  0.84943088    -0.56800
O303        O  0.08184146  0.81718018  0.74011302    -0.56800
O304        O  0.08606811  0.84108834  0.81354374    -0.56000
C305        C  0.25447214  0.16280638  0.31950055     0.87100
C306        C  0.26033980  0.16272566  0.35636836    -0.53100
C307        C  0.26460206  0.17494287  0.36832213     0.10100
C308        C  0.26283819  0.18615523  0.34148193     0.21000
C309        C  0.24368680  0.17358031  0.32052737    -0.53800
C310        C  0.24796989  0.18578161  0.33199192     0.10200
C311        C  0.26547058  0.16872114  0.29702452    -0.53400
C312        C  0.26985257  0.18102776  0.30813041     0.10700
H313        H  0.26039729  0.15386328  0.37226982     0.15200
H314        H  0.26623840  0.19607211  0.35118538     0.01000
H315        H  0.23351348  0.17169172  0.31226131     0.15500
H316        H  0.26934377  0.16375641  0.27414071     0.15300
C317        C  0.31983270  0.23883533  0.16727852     0.87100
C318        C  0.30983538  0.25022131  0.16402811    -0.53100
C319        C  0.31422573  0.26078507  0.14546478     0.10100
C320        C  0.32846986  0.25913445  0.13222103     0.21000
C321        C  0.32344578  0.23527430  0.12945467    -0.53800
C322        C  0.32788747  0.24594857  0.11074472     0.10200
C323        C  0.33237940  0.24528318  0.18274631    -0.53400
C324        C  0.33698521  0.25598312  0.16480781     0.10700
H325        H  0.29985930  0.24970095  0.17434859     0.15200
H326        H  0.33186513  0.26790669  0.11760095     0.01000
H327        H  0.32225106  0.22534746  0.11828544     0.15500
H328        H  0.33709763  0.24156301  0.20612177     0.15300
C329        C  0.17968825  0.27948484  0.30114640     0.87100
C330        C  0.19031155  0.26858110  0.30010041    -0.53100
C331        C  0.18706257  0.25727313  0.31727804     0.10100
C332        C  0.17320283  0.25784447  0.33375445     0.21000
C333        C  0.16702288  0.27266004  0.28677331    -0.53800
C334        C  0.16359136  0.26124483  0.30370368     0.10200
C335        C  0.17698510  0.28180420  0.34010598    -0.53400
C336        C  0.17354626  0.27045815  0.35722846     0.10700
H337        H  0.19967690  0.26983783  0.28687232     0.15200
H338        H  0.17064627  0.24869799  0.34800822     0.01000
H339        H  0.16125289  0.27656420  0.26536779     0.15500
H340        H  0.17776786  0.29151229  0.35291302     0.15300
C341        C  0.22885343  0.33353514  0.15275205     0.87100
C342        C  0.22437142  0.33648640  0.11522407    -0.53100
C343        C  0.23448495  0.34038565  0.09395315     0.10100
C344        C  0.24816458  0.34109987  0.11283782     0.21000
C345        C  0.23989342  0.32321910  0.14867015    -0.53800
C346        C  0.24997307  0.32708229  0.12788721     0.10200
C347        C  0.23583092  0.34634983  0.16538487    -0.53400
C348        C  0.24603688  0.35035117  0.14483705     0.10700
H349        H  0.21420656  0.33539276  0.10617761     0.15200
H350        H  0.25652822  0.34409710  0.09621636     0.01000
H351        H  0.23969229  0.31354806  0.16108547     0.15500
H352        H  0.23320306  0.35144063  0.18944234     0.15300
C353        C  0.25368073  0.16351449  0.65788117     0.87100
C354        C  0.26407995  0.17057192  0.68094573    -0.53100
C355        C  0.26745299  0.18306121  0.67006762     0.10100
C356        C  0.26003558  0.18725227  0.63638995     0.21000
C357        C  0.24204873  0.17324488  0.65615988    -0.53800
C358        C  0.24520328  0.18562615  0.64451100     0.10200
C359        C  0.25959567  0.16352910  0.62133090    -0.53400
C360        C  0.26284143  0.17595624  0.60973601     0.10700
H361        H  0.26846463  0.16600203  0.70361734     0.15200
H362        H  0.26263564  0.19730643  0.62695042     0.01000
H363        H  0.23207915  0.17035515  0.66329556     0.15500
H364        H  0.26045581  0.15452509  0.60545868     0.15300
C365        C  0.32202052  0.24065914  0.80742736     0.87100
C366        C  0.32594014  0.23691453  0.84480355    -0.53100
C367        C  0.33069088  0.24743014  0.86463064     0.10100
C368        C  0.33150519  0.26064669  0.84435869     0.21000
C369        C  0.31239251  0.25227136  0.81192158    -0.53800
C370        C  0.31721649  0.26266910  0.83138630     0.10200
C371        C  0.33452183  0.24680108  0.79226777    -0.53400
C372        C  0.33958041  0.25733359  0.81123276     0.10700
H373        H  0.32449657  0.22702760  0.85504268     0.15200
H374        H  0.33531741  0.26926519  0.85986249     0.01000
H375        H  0.30228985  0.25201935  0.80175374     0.15500
H376        H  0.33863114  0.24331643  0.76782294     0.15300
C377        C  0.15199480  0.25357395  0.65258340     0.87100
C378        C  0.15079240  0.25794891  0.61461378    -0.53100
C379        C  0.16249981  0.26209891  0.60055402     0.10100
C380        C  0.17438598  0.26165735  0.62636954     0.21000
C381        C  0.16286611  0.24295007  0.65216934    -0.53800
C382        C  0.17457729  0.24702212  0.63827681     0.10200
C383        C  0.15820361  0.26555696  0.67196514    -0.53400
C384        C  0.17001814  0.26981042  0.65890162     0.10700
H385        H  0.14158961  0.25727104  0.59976074     0.15200
H386        H  0.18386687  0.26490313  0.61486378     0.01000
H387        H  0.16128802  0.23295691  0.66185868     0.15500
H388        H  0.15371849  0.27015095  0.69454320     0.15300
C389        C  0.22750910  0.32657172  0.79224249     0.87100
C390        C  0.23353254  0.33901912  0.77572777    -0.53100
C391        C  0.24346590  0.34499064  0.79498221     0.10100
C392        C  0.24640417  0.33784703  0.82936934     0.21000
C393        C  0.23933157  0.31744396  0.79969224    -0.53800
C394        C  0.24918612  0.32331308  0.81893953     0.10200
C395        C  0.22304022  0.33135102  0.82873117    -0.53400
C396        C  0.23301236  0.33715095  0.84851797     0.10700
H397        H  0.23022044  0.34262589  0.75064578     0.15200
H398        H  0.25466970  0.34229147  0.84473293     0.01000
H399        H  0.23977507  0.30709323  0.79089784     0.15500
H400        H  0.21313387  0.32983423  0.83851528     0.15300
C401        C  0.16905854  0.73313414  0.30700396     0.87100
C402        C  0.15651741  0.74023575  0.29389135    -0.53100
C403        C  0.15340625  0.75163915  0.31205554     0.10100
C404        C  0.16310968  0.75471237  0.34240512     0.21000
C405        C  0.17993837  0.74381881  0.30709257    -0.53800
C406        C  0.17687101  0.75511496  0.32550280     0.10200
C407        C  0.16639924  0.73063694  0.34559815    -0.53400
C408        C  0.16334701  0.74194479  0.36446834     0.10700
H409        H  0.15089291  0.73667381  0.27142037     0.15200
H410        H  0.16073800  0.76389961  0.35747286     0.01000
H411        H  0.18921925  0.74256369  0.29334884     0.15500
H412        H  0.16692832  0.72079563  0.35682574     0.15300
C413        C  0.22086131  0.67700931  0.16980826     0.87100
C414        C  0.22795966  0.66453681  0.18309639    -0.53100
C415        C  0.23946019  0.66154493  0.16608606     0.10100
C416        C  0.24265561  0.67135525  0.13659793     0.21000
C417        C  0.23130973  0.68808313  0.17157850    -0.53800
C418        C  0.24271691  0.68522687  0.15424624     0.10200
C419        C  0.21870347  0.67425651  0.13075996    -0.53400
C420        C  0.23011878  0.67147261  0.11288459     0.10700
H421        H  0.22432367  0.65878726  0.20466365     0.15200
H422        H  0.25194923  0.66907934  0.12266819     0.01000
H423        H  0.22968783  0.69750673  0.18522571     0.15500
H424        H  0.20903569  0.67506037  0.11836515     0.15300
C425        C  0.31441496  0.77432210  0.18586610     0.87100
C426        C  0.31705441  0.77689216  0.14712150    -0.53100
C427        C  0.32110626  0.76576398  0.12882727     0.10100
C428        C  0.32245201  0.75322093  0.15152603     0.21000
C429        C  0.30458834  0.76269284  0.18548271    -0.53800
C430        C  0.30862854  0.75169918  0.16727983     0.10200
C431        C  0.32735428  0.76852639  0.19999957    -0.53400
C432        C  0.33165180  0.75741222  0.18240659     0.10700
H433        H  0.31516601  0.78637936  0.13491906     0.15200
H434        H  0.32571872  0.74420002  0.13702465     0.01000
H435        H  0.29494906  0.76334289  0.19774977     0.15500
H436        H  0.33236417  0.77274856  0.22270910     0.15300
C437        C  0.24316191  0.85068396  0.31899046     0.87100
C438        C  0.25501952  0.84454518  0.29989438    -0.53100
C439        C  0.25918860  0.83260997  0.31281704     0.10100
C440        C  0.25111922  0.82802100  0.34450352     0.21000
C441        C  0.23252420  0.83973609  0.31818256    -0.53800
C442        C  0.23661360  0.82786690  0.33149725     0.10200
C443        C  0.24763771  0.85166445  0.35710037    -0.53400
C444        C  0.25161208  0.83979494  0.37090668     0.10700
H445        H  0.25972945  0.84918768  0.27806628     0.15200
H446        H  0.25430490  0.81839135  0.35563340     0.01000
H447        H  0.22260354  0.84130759  0.30778060     0.15500
H448        H  0.24699171  0.86085798  0.37231228     0.15300
C449        C  0.16779355  0.73264543  0.66892197     0.87100
C450        C  0.15402156  0.73788497  0.67875134    -0.53100
C451        C  0.15019484  0.74908408  0.66119136     0.10100
C452        C  0.16059730  0.75379103  0.63471396     0.21000
C453        C  0.16698087  0.73041132  0.62942064    -0.53800
C454        C  0.16322280  0.74145495  0.61114618     0.10200
C455        C  0.17706617  0.74456895  0.67420997    -0.53400
C456        C  0.17337436  0.75567900  0.65658143     0.10700
H457        H  0.14808520  0.73330214  0.69864903     0.15200
H458        H  0.15776687  0.76284727  0.62035055     0.01000
H459        H  0.16905338  0.72082737  0.61722723     0.15500
H460        H  0.18590492  0.74413353  0.69053933     0.15300
C461        C  0.22337318  0.68054099  0.80848150     0.87100
C462        C  0.22131126  0.67979110  0.84790388    -0.53100
C463        C  0.23231610  0.67573922  0.86615942     0.10100
C464        C  0.24440889  0.67277406  0.84277166     0.21000
C465        C  0.23541912  0.68960355  0.80432921    -0.53800
C466        C  0.24643249  0.68567902  0.82224929     0.10200
C467        C  0.22820358  0.66660562  0.79783052    -0.53400
C468        C  0.23936634  0.66246505  0.81510304     0.10700
H469        H  0.21203736  0.68235338  0.86025752     0.15200
H470        H  0.25341393  0.66962278  0.85716865     0.01000
H471        H  0.23510430  0.69858216  0.78886765     0.15500
H472        H  0.22334571  0.66080034  0.77735150     0.15300
C473        C  0.31835807  0.77477824  0.82361381     0.87100
C474        C  0.30900045  0.76298852  0.81732549    -0.53100
C475        C  0.31224091  0.75182772  0.83528219     0.10100
C476        C  0.32479154  0.75345310  0.85814307     0.21000
C477        C  0.31867604  0.77693613  0.86323728    -0.53800
C478        C  0.32195680  0.76576979  0.88162112     0.10200
C479        C  0.33214326  0.76939146  0.81498109    -0.53400
C480        C  0.33560664  0.75812188  0.83269717     0.10700
H481        H  0.30034085  0.76359567  0.80038477     0.15200
H482        H  0.32744958  0.74434309  0.87258884     0.01000
H483        H  0.31630413  0.78643537  0.87552937     0.15500
H484        H  0.33836541  0.77394972  0.79565129     0.15300
C485        C  0.26476894  0.82371078  0.67248431     0.87100
C486        C  0.25255126  0.81505538  0.67889523    -0.53100
C487        C  0.24154434  0.81864219  0.66035844     0.10100
C488        C  0.24377104  0.83076233  0.63713792     0.21000
C489        C  0.26668272  0.82310263  0.63279088    -0.53800
C490        C  0.25569109  0.82692466  0.61428172     0.10200
C491        C  0.26015765  0.83805296  0.68024967    -0.53400
C492        C  0.24897723  0.84176992  0.66227804     0.10700
H493        H  0.25272644  0.80667640  0.69646557     0.15200
H494        H  0.23482215  0.83354561  0.62201286     0.01000
H495        H  0.27592989  0.82038618  0.62041241     0.15500
H496        H  0.26504640  0.84438873  0.69959227     0.15300
O497        O  0.68917145  0.43094382  0.34683729    -0.57200
C498        C  0.69550625  0.41671832  0.25379996     0.75500
O499        O  0.65613860  0.42342921  0.26093459    -0.58300
C500        C  0.67988853  0.43545244  0.36559141     0.75400
C501        C  0.67683209  0.46113081  0.26978880     0.77800
Cd502      Cd  0.67651258  0.43322583  0.29065438     1.37500
O503        O  0.69815973  0.42217798  0.28289872    -0.57200
O504        O  0.68733128  0.45467004  0.27566824    -0.56000
C505        C  0.65284175  0.41667987  0.28709970     0.77800
O506        O  0.66613056  0.45458685  0.27125985    -0.58400
O507        O  0.68417695  0.41911499  0.24092953    -0.56800
O508        O  0.66943136  0.43895843  0.34980071    -0.56800
O509        O  0.66037438  0.41760509  0.31348758    -0.56000
O510        O  0.69542110  0.59641753  0.30206723    -0.57200
C511        C  0.67904148  0.57744733  0.37937347     0.75500
O512        O  0.65451760  0.58922925  0.27725748    -0.58300
C513        C  0.69317782  0.60061632  0.27171436     0.75400
C514        C  0.67751827  0.55479219  0.27978916     0.77800
Cd515      Cd  0.67552206  0.58199721  0.30578856     1.37500
O516        O  0.68583278  0.58605565  0.36364472    -0.57200
O517        O  0.68777448  0.56156266  0.28746602    -0.56000
C518        C  0.65086850  0.59657493  0.30242050     0.77800
O519        O  0.66654159  0.56081473  0.28191436    -0.58400
O520        O  0.67074970  0.57083815  0.36118395    -0.56800
O521        O  0.68324674  0.59561642  0.25591120    -0.56800
O522        O  0.65833897  0.59685155  0.32900097    -0.56000
O523        O  0.41037489  0.71024003  0.29478782    -0.57200
C524        C  0.42164317  0.69280203  0.37799622     0.75500
O525        O  0.41024815  0.66882003  0.27084369    -0.58300
C526        C  0.40342400  0.70675231  0.26858091     0.75400
C527        C  0.44738723  0.68695356  0.27914880     0.77800
Cd528      Cd  0.42030492  0.68786247  0.30367717     1.37500
O529        O  0.41241584  0.69767323  0.35961571    -0.57200
O530        O  0.44104369  0.69782150  0.28115445    -0.56000
C531        C  0.40568064  0.66326374  0.29748824     0.77800
O532        O  0.44104149  0.67650892  0.28638219    -0.58400
O533        O  0.43033547  0.68608891  0.36203172    -0.56800
O534        O  0.40484432  0.69488837  0.25762076    -0.56800
O535        O  0.40812726  0.66888128  0.32648078    -0.56000
O536        O  0.57580200  0.69397072  0.35646596    -0.57200
C537        C  0.58317808  0.70370619  0.26177977     0.75500
O538        O  0.57607697  0.66346278  0.27104398    -0.58300
C539        C  0.56637193  0.68921726  0.37388218     0.75400
C540        C  0.54027720  0.68411662  0.27720293     0.77800
Cd541      Cd  0.56777034  0.68454678  0.29963903     1.37500
O542        O  0.57702011  0.70688950  0.28915836    -0.57200
O543        O  0.54665572  0.69491226  0.28121264    -0.56000
C544        C  0.58291176  0.66021555  0.29740544     0.77800
O545        O  0.54674368  0.67345346  0.28157435    -0.58400
O546        O  0.58177813  0.69182023  0.25084506    -0.56800
O547        O  0.55761063  0.68272756  0.35701169    -0.56800
O548        O  0.58244826  0.66797958  0.32351872    -0.56000
O549        O  0.30139064  0.42097016  0.27221639    -0.57200
C550        C  0.31945330  0.43216613  0.35710697     0.75500
O551        O  0.34282947  0.42107786  0.24910709    -0.58300
C552        C  0.30450640  0.41406715  0.24573213     0.75400
C553        C  0.32251714  0.45872788  0.26123296     0.77800
Cd554      Cd  0.32381203  0.43084401  0.28271524     1.37500
O555        O  0.31249954  0.42456662  0.33762863    -0.57200
O556        O  0.31230384  0.45170202  0.26573906    -0.56000
C557        C  0.34847253  0.41598021  0.27529261     0.77800
O558        O  0.33349658  0.45277710  0.26443517    -0.58400
O559        O  0.32838022  0.43884367  0.34244012    -0.56800
O560        O  0.31639134  0.41503608  0.23594183    -0.56800
O561        O  0.34295798  0.41797515  0.30429392    -0.56000
O562        O  0.29503869  0.58897440  0.27783087    -0.57200
C563        C  0.31258482  0.57784760  0.36473089     0.75500
O564        O  0.32834910  0.55973949  0.26413655    -0.58300
C565        C  0.29866027  0.59678966  0.25422985     0.75400
C566        C  0.34183658  0.59514779  0.29089619     0.77800
Cd567      Cd  0.31750573  0.57979909  0.29065970     1.37500
O568        O  0.30598295  0.58575173  0.34589928    -0.57200
O569        O  0.33582899  0.59223945  0.31844083    -0.56000
C570        C  0.31815004  0.55239944  0.26335625     0.77800
O571        O  0.33692492  0.59059436  0.26269393    -0.58400
O572        O  0.32134401  0.57094970  0.34952002    -0.56800
O573        O  0.31082686  0.59653259  0.24672237    -0.56800
O574        O  0.30749155  0.55787202  0.27292037    -0.56000
O575        O  0.58731448  0.30061985  0.28321856    -0.57200
C576        C  0.57076322  0.31824848  0.36299436     0.75500
O577        O  0.58518854  0.34206924  0.26128798    -0.58300
C578        C  0.59381109  0.30368444  0.25654490     0.75400
C579        C  0.54891141  0.32136112  0.25970661     0.77800
Cd580      Cd  0.57556471  0.32226011  0.28974515     1.37500
O581        O  0.57892352  0.31099830  0.34654307    -0.57200
O582        O  0.55504836  0.31086450  0.26797227    -0.56000
C583        C  0.59050838  0.34700918  0.28850983     0.77800
O584        O  0.55529285  0.33215979  0.26321905    -0.58400
O585        O  0.56498292  0.32724500  0.34581795    -0.56800
O586        O  0.59155564  0.31509344  0.24426401    -0.56800
O587        O  0.58881558  0.34067144  0.31630653    -0.56000
O588        O  0.42420546  0.31475114  0.33674385    -0.57200
C589        C  0.41085595  0.30591165  0.24902905     0.75500
O590        O  0.41699164  0.34233657  0.24580551    -0.58300
C591        C  0.43047006  0.32331635  0.35506818     0.75400
C592        C  0.45645838  0.32403988  0.25511198     0.77800
Cd593      Cd  0.42916796  0.32520256  0.28009682     1.37500
O594        O  0.41509698  0.30483077  0.27995398    -0.57200
O595        O  0.45009235  0.31364475  0.26289116    -0.56000
C596        C  0.41383147  0.34935732  0.27203131     0.77800
O597        O  0.45016047  0.33489818  0.25741833    -0.58400
O598        O  0.41562711  0.31538894  0.23174080    -0.56800
O599        O  0.43658835  0.33226439  0.33881691    -0.56800
O600        O  0.41808946  0.34547673  0.30113075    -0.56000
O601        O  0.41976518  0.31621216  0.61746497    -0.57200
C602        C  0.40730902  0.30921155  0.71098782     0.75500
O603        O  0.44459186  0.33871556  0.69675764    -0.58300
C604        C  0.42686718  0.32410427  0.60018644     0.75400
C605        C  0.40720192  0.35099991  0.67510845     0.77800
Cd606      Cd  0.42399953  0.32771769  0.67398768     1.37500
O607        O  0.41316898  0.30568878  0.68338444    -0.57200
O608        O  0.40824057  0.34338859  0.64878104    -0.56000
C609        C  0.45134722  0.32810611  0.69809306     0.77800
O610        O  0.41441058  0.34827088  0.70122144    -0.58400
O611        O  0.40977136  0.32085486  0.72242004    -0.56800
O612        O  0.43285019  0.33324393  0.61711179    -0.56800
O613        O  0.44530158  0.31737777  0.69048516    -0.56000
O614        O  0.58386844  0.30389328  0.68923905    -0.57200
C615        C  0.56845958  0.31914087  0.60665033     0.75500
O616        O  0.55104383  0.33627314  0.69883438    -0.58300
C617        C  0.58633441  0.30578005  0.72122052     0.75400
C618        C  0.58918595  0.34788966  0.68351465     0.77800
Cd619      Cd  0.57171983  0.32482354  0.68015685     1.37500
O620        O  0.57529610  0.31155478  0.62580518    -0.57200
O621        O  0.58901665  0.33973806  0.65813129    -0.56000
C622        C  0.54421832  0.32572018  0.70080724     0.77800
O623        O  0.58101810  0.34570615  0.70750811    -0.58400
O624        O  0.56315716  0.32913605  0.62141467    -0.56800
O625        O  0.58156367  0.31623489  0.73501365    -0.56800
O626        O  0.55019580  0.31485923  0.69477552    -0.56000
O627        O  0.29103264  0.59007179  0.69382324    -0.57200
C628        C  0.30938251  0.57678514  0.60939355     0.75500
O629        O  0.33440013  0.58909517  0.70945624    -0.58300
C630        C  0.29343988  0.59431364  0.72438314     0.75400
C631        C  0.31351457  0.55264609  0.70567300     0.77800
Cd632      Cd  0.31316349  0.58012404  0.68368050     1.37500
O633        O  0.30222094  0.58476690  0.62679770    -0.57200
O634        O  0.30290496  0.55879985  0.69875781    -0.56000
C635        C  0.33615368  0.59752762  0.68573979     0.77800
O636        O  0.32415622  0.55931234  0.70405621    -0.58400
O637        O  0.31793648  0.57023541  0.62631415    -0.56800
O638        O  0.30482214  0.59173971  0.73668970    -0.56800
O639        O  0.32750848  0.59775207  0.66176368    -0.56000
O640        O  0.30475291  0.42932780  0.61754348    -0.57200
C641        C  0.29633687  0.41509349  0.70924249     0.75500
O642        O  0.33547014  0.42241048  0.70533725    -0.58300
C643        C  0.31352762  0.43576700  0.60145792     0.75400
C644        C  0.31429221  0.45938236  0.70166091     0.77800
Cd645      Cd  0.31541564  0.43206914  0.67558575     1.37500
O646        O  0.29466241  0.41897946  0.67835118    -0.57200
O647        O  0.30388374  0.45315430  0.69251685    -0.56000
C648        C  0.33877346  0.41523218  0.67945383     0.77800
O649        O  0.32501688  0.45287394  0.70031520    -0.58400
O650        O  0.30648590  0.41950777  0.72524438    -0.56800
O651        O  0.32281775  0.44084831  0.61967547    -0.56800
O652        O  0.33159503  0.41614342  0.65251314    -0.56000
O653        O  0.69580698  0.59125568  0.71069793    -0.57200
C654        C  0.67861872  0.57720040  0.62379402     0.75500
O655        O  0.66412251  0.55927581  0.72053808    -0.58300
C656        C  0.69166850  0.59843313  0.73566430     0.75400
C657        C  0.64976988  0.59532976  0.69579685     0.77800
Cd658      Cd  0.67413052  0.58019185  0.69740326     1.37500
O659        O  0.68529101  0.58542525  0.64221395    -0.57200
O660        O  0.65731463  0.59438752  0.66986182    -0.56000
C661        C  0.67486078  0.55278743  0.72202299     0.77800
O662        O  0.65313663  0.58884083  0.72249230    -0.58400
O663        O  0.67020576  0.57019484  0.63945116    -0.56800
O664        O  0.67974055  0.59667303  0.74426458    -0.56800
O665        O  0.68525712  0.55915747  0.71464073    -0.56000
O666        O  0.69942296  0.41948033  0.69016053    -0.57200
C667        C  0.67997922  0.43633367  0.61165283     0.75500
O668        O  0.65760185  0.42280122  0.71313722    -0.58300
C669        C  0.69830677  0.41594081  0.72142169     0.75400
C670        C  0.67795624  0.45931426  0.71319672     0.77800
Cd671      Cd  0.67832879  0.43202204  0.68644894     1.37500
O672        O  0.68973478  0.43194398  0.62902386    -0.57200
O673        O  0.68858273  0.45344848  0.70488043    -0.56000
C674        C  0.65609064  0.41390007  0.68966674     0.77800
O675        O  0.66745686  0.45242249  0.71097973    -0.58400
O676        O  0.66963968  0.43904478  0.62871729    -0.56800
O677        O  0.68825581  0.42027591  0.73740227    -0.56800
O678        O  0.66467084  0.41355573  0.66600300    -0.56000
O679        O  0.57820452  0.70594031  0.69960748    -0.57200
C680        C  0.56363392  0.68972940  0.61834871     0.75500
O681        O  0.57597331  0.66387750  0.71794502    -0.58300
C682        C  0.58357335  0.70320449  0.72848967     0.75400
C683        C  0.53930081  0.68473776  0.71736931     0.77800
Cd684      Cd  0.56649077  0.68449590  0.69159447     1.37500
O685        O  0.57161583  0.69639824  0.63735136    -0.57200
O686        O  0.54612028  0.69528767  0.71511911    -0.56000
C687        C  0.58276843  0.66069398  0.69160959     0.77800
O688        O  0.54513679  0.67397591  0.70935412    -0.58400
O689        O  0.55670069  0.68103795  0.63331090    -0.56800
O690        O  0.58057822  0.69207168  0.74137836    -0.56800
O691        O  0.58163725  0.66812461  0.66555000    -0.56000
O692        O  0.41411039  0.69925912  0.64169336    -0.57200
C693        C  0.40369424  0.70514411  0.74017331     0.75500
O694        O  0.41092991  0.66560683  0.71798231    -0.58300
C695        C  0.42212645  0.69259692  0.62320573     0.75400
C696        C  0.44650263  0.68608397  0.72241140     0.77800
Cd697      Cd  0.41927278  0.68736949  0.69677900     1.37500
O698        O  0.40946420  0.70928137  0.71333501    -0.57200
O699        O  0.44086259  0.69702833  0.71567053    -0.56000
C700        C  0.40235374  0.66410168  0.69395423     0.77800
O701        O  0.43942209  0.67569446  0.71916482    -0.58400
O702        O  0.40558885  0.69307571  0.74777568    -0.56800
O703        O  0.42901138  0.68393989  0.63875546    -0.56800
O704        O  0.40195117  0.67300720  0.67107655    -0.56000
C705        C  0.74644455  0.18191763  0.40565175     0.87100
C706        C  0.74956008  0.16849888  0.38758840    -0.53100
C707        C  0.75305749  0.16950906  0.35343963     0.10100
C708        C  0.75275405  0.18401471  0.34031818     0.21000
C709        C  0.75881580  0.19045979  0.39961715    -0.53800
C710        C  0.76201137  0.19173265  0.36547517     0.10200
C711        C  0.73554251  0.18818548  0.38297554    -0.53400
C712        C  0.73874531  0.18929798  0.34854493     0.10700
H713        H  0.74959405  0.15909285  0.40098103     0.15200
H714        H  0.75564789  0.18505010  0.31287937     0.01000
H715        H  0.76425100  0.19550234  0.42052895     0.15500
H716        H  0.72619025  0.19154680  0.39365427     0.15300
C717        C  0.68597032  0.23725579  0.18656299     0.87100
C718        C  0.67302814  0.24328515  0.20116638    -0.53100
C719        C  0.66770403  0.25326686  0.18149344     0.10100
C720        C  0.67577938  0.25619216  0.14873407     0.21000
C721        C  0.68231708  0.23273235  0.14901447    -0.53800
C722        C  0.67691120  0.24270537  0.12925234     0.10200
C723        C  0.69513343  0.24925420  0.18174695    -0.53400
C724        C  0.68990938  0.25905409  0.16173258     0.10700
H725        H  0.66849233  0.24009338  0.22497777     0.15200
H726        H  0.67178938  0.26428819  0.13235452     0.01000
H727        H  0.68406968  0.22271670  0.13892515     0.15500
H728        H  0.70519899  0.24970754  0.19210331     0.15300
C729        C  0.77221657  0.33531166  0.16765826     0.87100
C730        C  0.76168933  0.32436050  0.16431213    -0.53100
C731        C  0.75067859  0.32796823  0.14592822     0.10100
C732        C  0.75113340  0.34230147  0.13252550     0.21000
C733        C  0.77511579  0.33920924  0.12996074    -0.53800
C734        C  0.76403229  0.34267869  0.11107025     0.10200
C735        C  0.76500811  0.34742045  0.18315758    -0.53400
C736        C  0.75389878  0.35113510  0.16512086     0.10700
H737        H  0.76294859  0.31449012  0.17518676     0.15200
H738        H  0.74207817  0.34504931  0.11786554     0.01000
H739        H  0.78495511  0.33857815  0.11895186     0.15500
H740        H  0.76844274  0.35254966  0.20655447     0.15300
C741        C  0.82875749  0.28317763  0.30426140     0.87100
C742        C  0.81863820  0.27173126  0.30368720    -0.53100
C743        C  0.82244314  0.26095315  0.32249656     0.10100
C744        C  0.83611212  0.26262443  0.34002872     0.21000
C745        C  0.83123123  0.28637839  0.34308728    -0.53800
C746        C  0.83497460  0.27554443  0.36206294     0.10200
C747        C  0.84176937  0.27680775  0.29171124    -0.53400
C748        C  0.84563685  0.26593254  0.31037375     0.10700
H749        H  0.80916704  0.27232731  0.29011491     0.15200
H750        H  0.83913999  0.25375408  0.35468070     0.01000
H751        H  0.82990255  0.29624287  0.35446878     0.15500
H752        H  0.84725860  0.28052544  0.26977656     0.15300
C753        C  0.75061138  0.16902246  0.70298043     0.87100
C754        C  0.74556004  0.16756063  0.66535122    -0.53100
C755        C  0.74077798  0.17902829  0.65120394     0.10100
C756        C  0.74085245  0.19094605  0.67724704     0.21000
C757        C  0.76048410  0.18067298  0.70249417    -0.53800
C758        C  0.75540893  0.19216525  0.68918581     0.10200
C759        C  0.73873614  0.17452964  0.72334941    -0.53400
C760        C  0.73362791  0.18611634  0.71015521     0.10700
H761        H  0.74673869  0.15835821  0.65049989     0.15200
H762        H  0.73679195  0.20032338  0.66651429     0.01000
H763        H  0.77067880  0.17978298  0.71154550     0.15500
H764        H  0.73494099  0.16998284  0.74662938     0.15300
C765        C  0.65458047  0.25845399  0.83376245     0.87100
C766        C  0.66527264  0.26931645  0.83485025    -0.53100
C767        C  0.67710147  0.26536071  0.84876327     0.10100
C768        C  0.67709997  0.25074694  0.86095602     0.21000
C769        C  0.66102024  0.24667920  0.81417953    -0.53800
C770        C  0.67287334  0.24269364  0.82814238     0.10200
C771        C  0.65348417  0.25387326  0.87144943    -0.53400
C772        C  0.66523873  0.24997432  0.88612973     0.10700
H773        H  0.66366418  0.27919286  0.82436480     0.15200
H774        H  0.68671383  0.24757565  0.87244703     0.01000
H775        H  0.65692823  0.24210679  0.79069946     0.15500
H776        H  0.64422166  0.25412633  0.88557938     0.15300
C777        C  0.77123633  0.33153940  0.80926736     0.87100
C778        C  0.77399219  0.33584921  0.84719175    -0.53100
C779        C  0.76290751  0.33973953  0.86501545     0.10100
C780        C  0.75012457  0.33922983  0.84257303     0.21000
C781        C  0.76046125  0.32076319  0.81155188    -0.53800
C782        C  0.74944436  0.32470241  0.82910723     0.10200
C783        C  0.76422984  0.34357765  0.79305231    -0.53400
C784        C  0.75313703  0.34768222  0.81037562     0.10700
H785        H  0.78378003  0.33522021  0.85900872     0.15200
H786        H  0.74110406  0.34238206  0.85655494     0.01000
H787        H  0.76155615  0.31081520  0.80033463     0.15500
H788        H  0.76783719  0.34857448  0.77032205     0.15300
C789        C  0.83187706  0.27159092  0.60739509     0.87100
C790        C  0.84369436  0.26489543  0.62530940    -0.53100
C791        C  0.84169583  0.26174318  0.65933124     0.10100
C792        C  0.82781940  0.26590500  0.67230182     0.21000
C793        C  0.82013846  0.26216554  0.61280202    -0.53800
C794        C  0.81795926  0.25917527  0.64668165     0.10200
C795        C  0.82883728  0.28388540  0.63022463    -0.53400
C796        C  0.82648992  0.28095997  0.66433040     0.10700
H797        H  0.85274296  0.26259444  0.61148893     0.15200
H798        H  0.82594837  0.26334851  0.69966269     0.01000
H799        H  0.81414923  0.25813917  0.59145736     0.15500
H800        H  0.82812089  0.29389146  0.62012915     0.15300
C801        C  0.81216719  0.29901866  0.73598507     0.21000
C802        C  0.80638701  0.30032673  0.76885882    -0.38900
C803        C  0.79859961  0.31174231  0.77418597     0.20000
C804        C  0.79666871  0.32115991  0.74871706     0.22600
C805        C  0.80256071  0.31991153  0.71587306    -0.39400
C806        C  0.81037167  0.30847320  0.71056423     0.21400
N807        N  0.81878880  0.28839667  0.72341118    -0.32700
C808        C  0.82119797  0.29098758  0.68953219    -0.10200
C809        C  0.81620398  0.30354978  0.68078287    -0.29000
N810        N  0.78745592  0.33011090  0.75859406    -0.45600
C811        C  0.78333956  0.32624612  0.79047642    -0.04900
C812        C  0.79032985  0.31499176  0.80121185    -0.22300
H813        H  0.80728994  0.29264574  0.78822052     0.19500
H814        H  0.80062203  0.32694231  0.69535028     0.18300
H815        H  0.81594270  0.30810117  0.65546920     0.14600
H816        H  0.78863948  0.30923767  0.82433792     0.14500
H817        H  0.82092951  0.27970068  0.73693728     0.32600
H818        H  0.78361152  0.33766358  0.74310752     0.35400
C819        C  0.70035737  0.29240931  0.84855751     0.21000
C820        C  0.70441475  0.30579283  0.84738320    -0.38900
C821        C  0.71807566  0.30789201  0.84402179     0.20000
C822        C  0.72700337  0.29744487  0.84172656     0.22600
C823        C  0.72295759  0.28403536  0.84331617    -0.39400
C824        C  0.70927281  0.28193315  0.84692544     0.21400
N825        N  0.68787906  0.28783127  0.85019563    -0.32700
C826        C  0.68878756  0.27432040  0.84986560    -0.10200
C827        C  0.70200002  0.27024924  0.84799750    -0.29000
N828        N  0.73932270  0.30208254  0.83657788    -0.45600
C829        C  0.73822382  0.31558178  0.83565980    -0.04900
C830        C  0.72513528  0.31957587  0.84059607    -0.22300
H831        H  0.69741169  0.31396748  0.84831372     0.19500
H832        H  0.72991370  0.27585045  0.84119647     0.18300
H833        H  0.70573598  0.26014193  0.84622017     0.14600
H834        H  0.72121663  0.32962539  0.84031904     0.14500
H835        H  0.67926958  0.29360323  0.85121255     0.32600
H836        H  0.74791241  0.29637991  0.83362170     0.35400
C837        C  0.77953981  0.21829516  0.69385920     0.21000
C838        C  0.79140108  0.22441957  0.70482615    -0.38900
C839        C  0.79576624  0.23496251  0.68438355     0.20000
C840        C  0.78885625  0.23906032  0.65515305     0.22600
C841        C  0.77685136  0.23308405  0.64450523    -0.39400
C842        C  0.77246566  0.22254752  0.66506061     0.21400
N843        N  0.77404313  0.20728413  0.70690515    -0.32700
C844        C  0.76339519  0.20445292  0.68627509    -0.10200
C845        C  0.76194844  0.21389576  0.66023789    -0.29000
N846        N  0.79569866  0.24846659  0.63848373    -0.45600
C847        C  0.80702755  0.25036943  0.65730682    -0.04900
C848        C  0.80734822  0.24223966  0.68634339    -0.22300
H849        H  0.79709608  0.22087358  0.72683045     0.19500
H850        H  0.77160946  0.23604926  0.62116695     0.18300
H851        H  0.75474406  0.21396685  0.63927184     0.14600
H852        H  0.81531315  0.24122387  0.70519978     0.14500
H853        H  0.77760530  0.20179808  0.72789459     0.32600
H854        H  0.79294127  0.25307123  0.61533333     0.35400
C855        C  0.69669909  0.21833441  0.79951336     0.21000
C856        C  0.70642931  0.20835944  0.80251123    -0.38900
C857        C  0.71198237  0.20377816  0.77110918     0.20000
C858        C  0.70833117  0.20891900  0.73923468     0.22600
C859        C  0.69852993  0.21880105  0.73621261    -0.39400
C860        C  0.69279064  0.22317806  0.76749915     0.21400
N861        N  0.69006107  0.22452661  0.82537400    -0.32700
C862        C  0.68170254  0.23319840  0.80961284    -0.10200
C863        C  0.68311470  0.23259897  0.77354005    -0.29000
N864        N  0.71538732  0.20321301  0.71345736    -0.45600
C865        C  0.72348880  0.19420405  0.72885315    -0.04900
C866        C  0.72160410  0.19427970  0.76485490    -0.22300
H867        H  0.70947759  0.20446953  0.82744340     0.19500
H868        H  0.69559538  0.22280962  0.71132052     0.18300
H869        H  0.67802766  0.23857410  0.75436766     0.14600
H870        H  0.72685748  0.18846280  0.78404991     0.14500
H871        H  0.69113797  0.22296372  0.85204661     0.32600
H872        H  0.71470470  0.20532514  0.68698857     0.35400
C873        C  0.83547768  0.28216061  0.45428990     0.21000
C874        C  0.83314610  0.28930440  0.48543453    -0.38900
C875        C  0.83450726  0.28195958  0.51615406     0.20000
C876        C  0.83783038  0.26856559  0.51558578     0.22600
C877        C  0.84022625  0.26150000  0.48466197    -0.39400
C878        C  0.83895098  0.26882140  0.45419665     0.21400
N879        N  0.83407870  0.28650393  0.42151265    -0.32700
C880        C  0.83665959  0.27579232  0.40049704    -0.10200
C881        C  0.83984705  0.26464421  0.42020984    -0.29000
N882        N  0.83764040  0.26356891  0.54763187    -0.45600
C883        C  0.83421454  0.27377451  0.56920406    -0.04900
C884        C  0.83226055  0.28550949  0.55048584    -0.22300
H885        H  0.83016799  0.29968034  0.48568027     0.19500
H886        H  0.84256116  0.25095527  0.48429599     0.18300
H887        H  0.84203207  0.25460225  0.41139516     0.14600
H888        H  0.82903760  0.29515112  0.56014216     0.14500
H889        H  0.83107720  0.29603127  0.41417683     0.32600
H890        H  0.83933966  0.25365268  0.55440402     0.35400
C891        C  0.76995918  0.34462306  0.95625902     0.21000
C892        C  0.77785211  0.34494404  0.98660925    -0.38900
C893        C  0.77095600  0.34539083  0.01815554     0.20000
C894        C  0.75726263  0.34550003  0.01933850     0.22600
C895        C  0.74937211  0.34514924  0.98899780    -0.39400
C896        C  0.75626489  0.34472691  0.95747801     0.21400
N897        N  0.77409556  0.34340471  0.92323987    -0.32700
C898        C  0.76295404  0.34263317  0.90311435    -0.10200
C899        C  0.75163207  0.34353177  0.92371978    -0.29000
N900        N  0.75309547  0.34515515  0.05239921    -0.45600
C901        C  0.76419577  0.34473078  0.07270880    -0.04900
C902        C  0.77554882  0.34495608  0.05205690    -0.22300
H903        H  0.78856863  0.34451845  0.98573816     0.19500
H904        H  0.73864962  0.34488570  0.98988864     0.18300
H905        H  0.74135943  0.34274371  0.91558858     0.14600
H906        H  0.78580109  0.34433320  0.06042440     0.14500
H907        H  0.78393478  0.34274127  0.91524611     0.32600
H908        H  0.74323565  0.34462482  0.06020475     0.35400
C909        C  0.81056614  0.31049815  0.26731587     0.21000
C910        C  0.80059129  0.32026687  0.26702895    -0.38900
C911        C  0.79574120  0.32378371  0.23407078     0.20000
C912        C  0.80032983  0.31789564  0.20376492     0.22600
C913        C  0.81023761  0.30807313  0.20408046    -0.39400
C914        C  0.81521336  0.30468152  0.23697964     0.21400
N915        N  0.81575139  0.30443136  0.29525688    -0.32700
C916        C  0.82388402  0.29471682  0.28277442    -0.10200
C917        C  0.82369522  0.29457921  0.24642592    -0.29000
N918        N  0.79319432  0.32195552  0.17616812    -0.45600
C919        C  0.78406075  0.33066231  0.18872259    -0.04900
C920        C  0.78531554  0.33191792  0.22494322    -0.22300
H921        H  0.79652687  0.32442506  0.29076853     0.19500
H922        H  0.81344405  0.30303782  0.18053654     0.18300
H923        H  0.82819072  0.28726342  0.22924825     0.14600
H924        H  0.77883638  0.33719477  0.24266708     0.14500
H925        H  0.81301137  0.30610033  0.32106211     0.32600
H926        H  0.79396121  0.31838733  0.15060867     0.35400
C927        C  0.66265657  0.24798138  0.97904364     0.21000
C928        C  0.65791135  0.25164776  0.01201626    -0.38900
C929        C  0.66474123  0.24625800  0.04048659     0.20000
C930        C  0.67540788  0.23771296  0.03654910     0.22600
C931        C  0.68026177  0.23416250  0.00343331    -0.39400
C932        C  0.67351192  0.23970616  0.97483089     0.21400
N933        N  0.65822164  0.25229996  0.94815286    -0.32700
C934        C  0.66637125  0.24692958  0.92380387    -0.10200
C935        C  0.67607326  0.23900385  0.93949564    -0.29000
N936        N  0.68059963  0.23456692  0.06784811    -0.45600
C937        C  0.67332417  0.24136081  0.09178470    -0.04900
C938        C  0.66332192  0.24870592  0.07559649    -0.22300
H939        H  0.64972166  0.25851427  0.01528472     0.19500
H940        H  0.68888536  0.22786127  0.00021257     0.18300
H941        H  0.68402821  0.23362773  0.92686149     0.14600
H942        H  0.65632002  0.25543695  0.08779698     0.14500
H943        H  0.65042115  0.25896923  0.94412443     0.32600
H944        H  0.68908196  0.22886557  0.07251134     0.35400
C945        C  0.70557359  0.28991779  0.14140735     0.21000
C946        C  0.70763095  0.30381377  0.14302482    -0.38900
C947        C  0.72069319  0.30810161  0.13702567     0.20000
C948        C  0.73082288  0.29916266  0.12992659     0.22600
C949        C  0.72873438  0.28539323  0.12776226    -0.39400
C950        C  0.71580849  0.28114839  0.13399264     0.21400
N951        N  0.69460928  0.28315230  0.15041619    -0.32700
C952        C  0.69812582  0.27009493  0.14931539    -0.10200
C953        C  0.71116365  0.26847180  0.13870349    -0.29000
N954        N  0.74258813  0.30534339  0.13015753    -0.45600
C955        C  0.74005911  0.31832163  0.13756541    -0.04900
C956        C  0.72648514  0.32055566  0.14132122    -0.22300
H957        H  0.69985819  0.31068901  0.15050501     0.19500
H958        H  0.73679974  0.27842143  0.12388581     0.18300
H959        H  0.71674095  0.25926449  0.13686649     0.14600
H960        H  0.72169479  0.32974459  0.14934726     0.14500
H961        H  0.68565530  0.28715086  0.15913597     0.32600
H962        H  0.75187682  0.30085280  0.12748771     0.35400
C963        C  0.74022834  0.18773362  0.49743211     0.21000
C964        C  0.73991263  0.19523911  0.52868783    -0.38900
C965        C  0.73855983  0.18785821  0.55929998     0.20000
C966        C  0.73762516  0.17409392  0.55865256     0.22600
C967        C  0.73790179  0.16662098  0.52748748    -0.39400
C968        C  0.73928235  0.17397327  0.49701000     0.21400
N969        N  0.74228833  0.19223586  0.46513342    -0.32700
C970        C  0.74292132  0.18126315  0.44395826    -0.10200
C971        C  0.74089092  0.16968106  0.46310877    -0.29000
N972        N  0.73744979  0.16933641  0.59107874    -0.45600
C973        C  0.73836861  0.18008286  0.61296569    -0.04900
C974        C  0.73888994  0.19185878  0.59391409    -0.22300
H975        H  0.74106061  0.20598255  0.52922130     0.19500
H976        H  0.73754835  0.15582093  0.52710709     0.18300
H977        H  0.74095159  0.15941429  0.45408744     0.14600
H978        H  0.74012615  0.20193231  0.60379889     0.14500
H979        H  0.74375535  0.20215179  0.45809290     0.32600
H980        H  0.73720291  0.15926523  0.59761813     0.35400
C981        C  0.78998503  0.21324917  0.35721217     0.21000
C982        C  0.80144557  0.22000534  0.36859722    -0.38900
C983        C  0.80523852  0.23088038  0.34854574     0.20000
C984        C  0.79810464  0.23482015  0.31955460     0.22600
C985        C  0.78670532  0.22796418  0.30789650    -0.39400
C986        C  0.78297720  0.21697214  0.32776409     0.21400
N987        N  0.78375825  0.20331693  0.37341463    -0.32700
C988        C  0.77272475  0.20064088  0.35412237    -0.10200
C989        C  0.77197741  0.20881443  0.32514053    -0.29000
N990        N  0.80336318  0.24593069  0.30625201    -0.45600
C991        C  0.81397657  0.24903439  0.32685016    -0.04900
C992        C  0.81546784  0.23981572  0.35342257    -0.22300
H993        H  0.80680376  0.21722781  0.39192079     0.19500
H994        H  0.78096960  0.23116415  0.28559006     0.18300
H995        H  0.76397140  0.20939204  0.30624956     0.14600
H996        H  0.82271697  0.23985895  0.37436063     0.14500
H997        H  0.78658443  0.19898226  0.39687754     0.32600
H998        H  0.79985116  0.25107986  0.28463704     0.35400
C999        C  0.69930824  0.21642891  0.25516620     0.21000
C1000       C  0.70055424  0.21184267  0.28939337    -0.38900
C1001       C  0.71250008  0.20538515  0.29764663     0.20000
C1002       C  0.72251728  0.20369391  0.27376673     0.22600
C1003       C  0.72130005  0.20832437  0.23947729    -0.39400
C1004       C  0.70926474  0.21470238  0.23110611     0.21400
N1005       N  0.68930570  0.22368347  0.24185530    -0.32700
C1006       C  0.69285509  0.22680652  0.20893356    -0.10200
C1007       C  0.70521403  0.22113699  0.20125506    -0.29000
N1008       N  0.73304797  0.19764607  0.28850839    -0.45600
C1009       C  0.72974142  0.19545022  0.32215600    -0.04900
C1010       C  0.71692845  0.20015398  0.32861323    -0.22300
H1011       H  0.69287484  0.21343639  0.30845544     0.19500
H1012       H  0.72923536  0.20727829  0.22090894     0.18300
H1013       H  0.71092145  0.22247163  0.17789001     0.14600
H1014       H  0.71155888  0.19999756  0.35279051     0.14500
H1015       H  0.68102677  0.22691592  0.25561425     0.32600
H1016       H  0.74197131  0.19540437  0.27625721     0.35400
C1017       C  0.50497773  0.67849992  0.73483646     0.21000
C1018       C  0.49325830  0.67086595  0.73585452    -0.38900
C1019       C  0.48132624  0.67812893  0.73681736     0.20000
C1020       C  0.48112446  0.69194353  0.73681694     0.22600
C1021       C  0.49282212  0.69955611  0.73608798    -0.39400
C1022       C  0.50472488  0.69231164  0.73510403     0.21400
N1023       N  0.51744378  0.67402119  0.73024973    -0.32700
C1024       C  0.52517538  0.68505151  0.72743337    -0.10200
C1025       C  0.51759191  0.69664279  0.73072339    -0.29000
N1026       N  0.46861757  0.69647265  0.73397591    -0.45600
C1027       C  0.46073736  0.68551107  0.73182730    -0.04900
C1028       C  0.46829753  0.67385787  0.73400510    -0.22300
H1029       H  0.49339354  0.66007089  0.73431574     0.19500
H1030       H  0.49264158  0.71033674  0.73470953     0.18300
H1031       H  0.52090862  0.70684449  0.72792745     0.14600
H1032       H  0.46483013  0.66366681  0.73117302     0.14500
H1033       H  0.52040484  0.66407982  0.72740444     0.32600
H1034       H  0.46569123  0.70641132  0.73141427     0.35400
C1035       C  0.73748110  0.37511622  0.76693881     0.21000
C1036       C  0.73512209  0.38384544  0.73943860    -0.38900
C1037       C  0.72443761  0.39261431  0.74365855     0.20000
C1038       C  0.71668828  0.39276260  0.77314158     0.22600
C1039       C  0.71907604  0.38400206  0.80080533    -0.39400
C1040       C  0.72977113  0.37513730  0.79644597     0.21400
N1041       N  0.74671616  0.36551312  0.76831052    -0.32700
C1042       C  0.74496556  0.35922139  0.79893306    -0.10200
C1043       C  0.73444660  0.36499811  0.81726169    -0.29000
N1044       N  0.70666331  0.40154332  0.76972710    -0.45600
C1045       C  0.70802297  0.40690277  0.73773197    -0.04900
C1046       C  0.71904807  0.40162571  0.72086017    -0.22300
H1047       H  0.74098823  0.38359421  0.71603374     0.19500
H1048       H  0.71287469  0.38386865  0.82359140     0.18300
H1049       H  0.73060074  0.36215347  0.84222166     0.14600
H1050       H  0.72232417  0.40366335  0.69476359     0.14500
H1051       H  0.75356626  0.36329507  0.74892434     0.32600
H1052       H  0.69906157  0.40336445  0.78741051     0.35400
C1053       C  0.62369386  0.61820526  0.67638059     0.21000
C1054       C  0.61661911  0.62735204  0.65612373    -0.38900
C1055       C  0.60696665  0.63483304  0.67368387     0.20000
C1056       C  0.60452539  0.63334256  0.70876812     0.22600
C1057       C  0.61164682  0.62420899  0.72907689    -0.39400
C1058       C  0.62129664  0.61668367  0.71147659     0.21400
N1059       N  0.63381118  0.61042243  0.66618010    -0.32700
C1060       C  0.63793052  0.60390060  0.69495510    -0.10200
C1061       C  0.63031843  0.60747705  0.72371237    -0.29000
N1062       N  0.59522706  0.64205512  0.71954397    -0.45600
C1063       C  0.59181480  0.64917619  0.69112270    -0.04900
C1064       C  0.59889513  0.64492746  0.66204262    -0.22300
H1065       H  0.61867329  0.62874307  0.62885156     0.19500
H1066       H  0.60997634  0.62321794  0.75666713     0.18300
H1067       H  0.63159325  0.60422580  0.75024119     0.14600
H1068       H  0.59849796  0.64898513  0.63613187     0.14500
H1069       H  0.63794182  0.60990146  0.64140128     0.32600
H1070       H  0.59175455  0.64338491  0.74485051     0.35400
C1071       C  0.68274755  0.51825092  0.73174669     0.21000
C1072       C  0.69079313  0.50689192  0.72837486    -0.38900
C1073       C  0.68420463  0.49456531  0.72899608     0.20000
C1074       C  0.67060093  0.49357877  0.73265899     0.22600
C1075       C  0.66252520  0.50496881  0.73606919    -0.39400
C1076       C  0.66913748  0.51734217  0.73545279     0.21400
N1077       N  0.68652478  0.53104631  0.72870153    -0.32700
C1078       C  0.67527060  0.53841661  0.73013050    -0.10200
C1079       C  0.66420910  0.53022116  0.73470392    -0.29000
N1080       N  0.66666611  0.48075876  0.72940085    -0.45600
C1081       C  0.67784383  0.47357799  0.72338469    -0.04900
C1082       C  0.68897693  0.48184677  0.72327570    -0.22300
H1083       H  0.70136379  0.50761417  0.72415483     0.19500
H1084       H  0.65183759  0.50426383  0.73765555     0.18300
H1085       H  0.65389511  0.53319588  0.73501013     0.14600
H1086       H  0.69909427  0.47902992  0.71759445     0.14500
H1087       H  0.69610037  0.53448885  0.72384130     0.32600
H1088       H  0.65692221  0.47720669  0.72940962     0.35400
C1089       C  0.36415291  0.61870986  0.70319732     0.21000
C1090       C  0.37439066  0.62476928  0.72295251    -0.38900
C1091       C  0.38090081  0.63546656  0.70713174     0.20000
C1092       C  0.37741229  0.63978350  0.67425495     0.22600
C1093       C  0.36717686  0.63379072  0.65464374    -0.39400
C1094       C  0.36071158  0.62312538  0.67038652     0.21400
N1095       N  0.35612769  0.60867127  0.71265257    -0.32700
C1096       C  0.34747149  0.60683084  0.68574121    -0.10200
C1097       C  0.35007952  0.61560965  0.65889244    -0.29000
N1098       N  0.38479554  0.65030990  0.66532158    -0.45600
C1099       C  0.39308873  0.65275942  0.69261144    -0.04900
C1100       C  0.39099318  0.64370368  0.71924643    -0.22300
H1101       H  0.37698476  0.62150757  0.74884143     0.19500
H1102       H  0.36432695  0.63730402  0.62916353     0.18300
H1103       H  0.34466389  0.61661373  0.63462005     0.14600
H1104       H  0.39593933  0.64340810  0.74433663     0.14500
H1105       H  0.35626055  0.60368087  0.73629577     0.32600
H1106       H  0.38409551  0.65564158  0.64224545     0.35400
C1107       C  0.32010124  0.51810773  0.71983564     0.21000
C1108       C  0.32785859  0.50649528  0.72073770    -0.38900
C1109       C  0.32084501  0.49438703  0.71956061     0.20000
C1110       C  0.30713303  0.49385426  0.71761068     0.22600
C1111       C  0.29936647  0.50547332  0.71684292    -0.39400
C1112       C  0.30638761  0.51758371  0.71797966     0.21400
N1113       N  0.32441774  0.53077074  0.71748779    -0.32700
C1114       C  0.31337038  0.53834203  0.71384426    -0.10200
C1115       C  0.30194457  0.53048396  0.71431875    -0.29000
N1116       N  0.30295395  0.48117734  0.71309181    -0.45600
C1117       C  0.31409750  0.47361644  0.71187321    -0.04900
C1118       C  0.32542245  0.48148846  0.71627680    -0.22300
H1119       H  0.33858777  0.50685104  0.72078437     0.19500
H1120       H  0.28868086  0.50511142  0.71397150     0.18300
H1121       H  0.29179922  0.53369689  0.71040944     0.14600
H1122       H  0.33565527  0.47831003  0.71463861     0.14500
H1123       H  0.33426788  0.53397593  0.71656092     0.32600
H1124       H  0.29319335  0.47796801  0.70898396     0.35400
C1125       C  0.60759372  0.28893628  0.78100184     0.21000
C1126       C  0.61515434  0.28740742  0.81153231    -0.38900
C1127       C  0.62469659  0.27722598  0.81058425     0.20000
C1128       C  0.62660741  0.26920546  0.78147262     0.22600
C1129       C  0.61909211  0.27077234  0.75089071    -0.39400
C1130       C  0.60950509  0.28090093  0.75187428     0.21400
N1131       N  0.59856782  0.29846746  0.77440459    -0.32700
C1132       C  0.59477965  0.29651170  0.74077591    -0.10200
C1133       C  0.60129526  0.28558382  0.72598516    -0.29000
N1134       N  0.63692272  0.26092403  0.78630221    -0.45600
C1135       C  0.64170781  0.26373095  0.81875905    -0.04900
C1136       C  0.63425570  0.27382398  0.83464099    -0.22300
H1137       H  0.61398329  0.29393244  0.83398143     0.19500
H1138       H  0.62084913  0.26480928  0.72768886     0.18300
H1139       H  0.60066705  0.28202651  0.69929898     0.14600
H1140       H  0.63609909  0.27854707  0.85973318     0.14500
H1141       H  0.59564761  0.30619530  0.79117730     0.32600
H1142       H  0.64082715  0.25440993  0.76764397     0.35400
C1143       C  0.62781984  0.39287237  0.70285054     0.21000
C1144       C  0.61687206  0.38730358  0.71989719    -0.38900
C1145       C  0.61060905  0.37649627  0.70248121     0.20000
C1146       C  0.61495328  0.37169806  0.67062575     0.22600
C1147       C  0.62580922  0.37724133  0.65370003    -0.39400
C1148       C  0.63202898  0.38794320  0.67101380     0.21400
N1149       N  0.63575055  0.40296256  0.71397127    -0.32700
C1150       C  0.64502177  0.40430898  0.68889337    -0.10200
C1151       C  0.64296939  0.39514612  0.66181286    -0.29000
N1152       N  0.60770293  0.36117052  0.65981150    -0.45600
C1153       C  0.59863194  0.35912271  0.68486514    -0.04900
C1154       C  0.60007637  0.36850920  0.71194946    -0.22300
H1155       H  0.61359122  0.39097736  0.74497493     0.19500
H1156       H  0.62928452  0.37337269  0.62899566     0.18300
H1157       H  0.64882566  0.39383188  0.63858626     0.14600
H1158       H  0.59440172  0.36919717  0.73563093     0.14500
H1159       H  0.63502036  0.40843619  0.73720657     0.32600
H1160       H  0.60902601  0.35553769  0.63702500     0.35400
C1161       C  0.38474151  0.37780932  0.69326849     0.21000
C1162       C  0.37781342  0.38726168  0.71356125    -0.38900
C1163       C  0.36733458  0.39387613  0.69656792     0.20000
C1164       C  0.36404960  0.39117418  0.66212901     0.22600
C1165       C  0.37089211  0.38172164  0.64201103    -0.39400
C1166       C  0.38134541  0.37520153  0.65886171     0.21400
N1167       N  0.39479903  0.36986226  0.70336510    -0.32700
C1168       C  0.39770860  0.36214676  0.67514529    -0.10200
C1169       C  0.38956735  0.36524760  0.64691966    -0.29000
N1170       N  0.35366221  0.39855098  0.65198088    -0.45600
C1171       C  0.35020381  0.40607074  0.68000238    -0.04900
C1172       C  0.35850419  0.40345535  0.70845202    -0.22300
H1173       H  0.38032030  0.38923603  0.74058726     0.19500
H1174       H  0.36819024  0.37951951  0.61521469     0.18300
H1175       H  0.38938061  0.36051414  0.62142269     0.14600
H1176       H  0.35803192  0.40782270  0.73432150     0.14500
H1177       H  0.39911091  0.36940699  0.72813293     0.32600
H1178       H  0.34909981  0.39837922  0.62745867     0.35400
C1179       C  0.48565383  0.32089884  0.71120224     0.21000
C1180       C  0.49698505  0.31282527  0.71024968    -0.38900
C1181       C  0.50914664  0.31957201  0.71183798     0.20000
C1182       C  0.51000626  0.33334738  0.71427890     0.22600
C1183       C  0.49863221  0.34145996  0.71528949    -0.39400
C1184       C  0.48641471  0.33468376  0.71359618     0.21400
N1185       N  0.47302678  0.31688256  0.70713091    -0.32700
C1186       C  0.46561831  0.32814379  0.70668287    -0.10200
C1187       C  0.47359901  0.33948378  0.71089803    -0.29000
N1188       N  0.52273181  0.33732198  0.71242036    -0.45600
C1189       C  0.52995282  0.32598670  0.70848214    -0.04900
C1190       C  0.52182906  0.31472697  0.70830889    -0.22300
H1191       H  0.49637294  0.30208642  0.70710217     0.19500
H1192       H  0.49925094  0.35224712  0.71595806     0.18300
H1193       H  0.47052673  0.34982254  0.71005386     0.14600
H1194       H  0.52473857  0.30443681  0.70408688     0.14500
H1195       H  0.46971104  0.30708779  0.70317537     0.32600
H1196       H  0.52621829  0.34714026  0.71205650     0.35400
C1197       C  0.42568281  0.31771718  0.44572993     0.21000
C1198       C  0.42071890  0.31144531  0.47531591    -0.38900
C1199       C  0.42457384  0.31716164  0.50741920     0.20000
C1200       C  0.43267619  0.32831396  0.50976219     0.22600
C1201       C  0.43754629  0.33463791  0.48024033    -0.39400
C1202       C  0.43377320  0.32887388  0.44820681     0.21400
N1203       N  0.42357664  0.31419305  0.41223775    -0.32700
C1204       C  0.43041679  0.32314973  0.39333341    -0.10200
C1205       C  0.43685818  0.33248531  0.41485704    -0.29000
N1206       N  0.43475719  0.33193747  0.54310346    -0.45600
C1207       C  0.42790601  0.32307398  0.56219586    -0.04900
C1208       C  0.42143718  0.31366861  0.54091361    -0.22300
H1209       H  0.41434682  0.30275703  0.47347461     0.19500
H1210       H  0.44383248  0.34339075  0.48208632     0.18300
H1211       H  0.44291194  0.34083472  0.40711434     0.14600
H1212       H  0.41509548  0.30556746  0.54884166     0.14500
H1213       H  0.41779035  0.30624605  0.40281316     0.32600
H1214       H  0.44029173  0.34010389  0.55229393     0.35400
C1215       C  0.62036037  0.28774252  0.21095260     0.21000
C1216       C  0.63103923  0.28686627  0.18783955    -0.38900
C1217       C  0.63950353  0.27586992  0.19217307     0.20000
C1218       C  0.63749396  0.26647619  0.21754045     0.22600
C1219       C  0.62679273  0.26731544  0.24054792    -0.39400
C1220       C  0.61833076  0.27829979  0.23625004     0.21400
N1221       N  0.61147225  0.29770156  0.21386642    -0.32700
C1222       C  0.60379356  0.29461840  0.24137800    -0.10200
C1223       C  0.60768908  0.28252095  0.25574937    -0.29000
N1224       N  0.64716002  0.25723530  0.21700938    -0.45600
C1225       C  0.65544153  0.26071605  0.19101279    -0.04900
C1226       C  0.65092732  0.27232012  0.17496184    -0.22300
H1227       H  0.63280498  0.29435500  0.16843698     0.19500
H1228       H  0.62534255  0.26011759  0.26085913     0.18300
H1229       H  0.60373419  0.27782647  0.27858160     0.14600
H1230       H  0.65545465  0.27767352  0.15396856     0.14500
H1231       H  0.61104092  0.30635147  0.19907792     0.32600
H1232       H  0.64799007  0.24909542  0.23349979     0.35400
C1233       C  0.57019760  0.30991146  0.45318545     0.21000
C1234       C  0.57457232  0.30377257  0.48390356    -0.38900
C1235       C  0.57001446  0.30954143  0.51512983     0.20000
C1236       C  0.56168739  0.32052287  0.51553547     0.22600
C1237       C  0.55719823  0.32652788  0.48492977    -0.39400
C1238       C  0.56178758  0.32082416  0.45385127     0.21400
N1239       N  0.57411648  0.30722719  0.42045298    -0.32700
C1240       C  0.56821418  0.31656531  0.40032976    -0.10200
C1241       C  0.56031917  0.32509442  0.42019774    -0.29000
N1242       N  0.55972055  0.32490923  0.54820863    -0.45600
C1243       C  0.56688591  0.31676444  0.56894689    -0.04900
C1244       C  0.57334139  0.30692397  0.54933383    -0.22300
H1245       H  0.58148336  0.29551447  0.48356817     0.19500
H1246       H  0.55105827  0.33538351  0.48534407     0.18300
H1247       H  0.55484830  0.33372835  0.41145500     0.14600
H1248       H  0.58011800  0.29937801  0.55866101     0.14500
H1249       H  0.58083957  0.29989357  0.41252132     0.32600
H1250       H  0.55430408  0.33332225  0.55583152     0.35400
C1251       C  0.49053359  0.31595329  0.24090830     0.21000
C1252       C  0.50185937  0.30787088  0.24350980    -0.38900
C1253       C  0.51409674  0.31451562  0.24219555     0.20000
C1254       C  0.51500408  0.32819716  0.23831809     0.22600
C1255       C  0.50366005  0.33629612  0.23554624    -0.39400
C1256       C  0.49139503  0.32964604  0.23715126     0.21400
N1257       N  0.47788008  0.31219266  0.24555593    -0.32700
C1258       C  0.47058514  0.32354531  0.24528304    -0.10200
C1259       C  0.47865364  0.33464715  0.23962864    -0.29000
N1260       N  0.52768988  0.33225267  0.24174262    -0.45600
C1261       C  0.53488902  0.32111120  0.24825300    -0.04900
C1262       C  0.52676105  0.30982952  0.24830752    -0.22300
H1263       H  0.50118466  0.29726587  0.24815849     0.19500
H1264       H  0.50433478  0.34705813  0.23419080     0.18300
H1265       H  0.47573245  0.34504070  0.23989718     0.14600
H1266       H  0.52958363  0.29973243  0.25469803     0.14500
H1267       H  0.47452377  0.30257894  0.25088818     0.32600
H1268       H  0.53111393  0.34209840  0.24198696     0.35400
C1269       C  0.31303139  0.57050404  0.45548662     0.21000
C1270       C  0.31787781  0.56465858  0.48598809    -0.38900
C1271       C  0.31252662  0.56955774  0.51715037     0.20000
C1272       C  0.30299295  0.57948593  0.51797533     0.22600
C1273       C  0.29805382  0.58527996  0.48735980    -0.39400
C1274       C  0.30347927  0.58041815  0.45608873     0.21400
N1275       N  0.31721595  0.56819255  0.42290476    -0.32700
C1276       C  0.31035265  0.57670648  0.40243853    -0.10200
C1277       C  0.30159601  0.58444785  0.42215456    -0.29000
N1278       N  0.30023335  0.58301718  0.55105038    -0.45600
C1279       C  0.30814874  0.57533581  0.57129786    -0.04900
C1280       C  0.31586857  0.56675828  0.55106630    -0.22300
H1281       H  0.32559524  0.55715858  0.48555685     0.19500
H1282       H  0.29085567  0.59328401  0.48791434     0.18300
H1283       H  0.29509003  0.59226913  0.41306522     0.14600
H1284       H  0.32336358  0.55983935  0.55996276     0.14500
H1285       H  0.32457473  0.56147638  0.41517450     0.32600
H1286       H  0.29378808  0.59055331  0.55929753     0.35400
C1287       C  0.32071243  0.43915108  0.44843658     0.21000
C1288       C  0.32608328  0.44446190  0.47946030    -0.38900
C1289       C  0.31952432  0.44096793  0.50992644     0.20000
C1290       C  0.30839935  0.43285395  0.50955288     0.22600
C1291       C  0.30301065  0.42752791  0.47843493    -0.39400
C1292       C  0.30963919  0.43096449  0.44788266     0.21400
N1293       N  0.32544410  0.44063964  0.41625770    -0.32700
C1294       C  0.31742029  0.43330363  0.39490751    -0.10200
C1295       C  0.30739281  0.42712234  0.41363229    -0.29000
N1296       N  0.30447436  0.43043436  0.54217203    -0.45600
C1297       C  0.31324243  0.43695312  0.56337275    -0.04900
C1298       C  0.32271767  0.44370961  0.54420006    -0.22300
H1299       H  0.33491761  0.45061243  0.47989972     0.19500
H1300       H  0.29448682  0.42095023  0.47811908     0.18300
H1301       H  0.29963481  0.42060262  0.40362049     0.14600
H1302       H  0.33114880  0.44936051  0.55403972     0.14500
H1303       H  0.33376866  0.44616496  0.40928626     0.32600
H1304       H  0.29666722  0.42427385  0.54958154     0.35400
C1305       C  0.37497334  0.39368785  0.25313745     0.21000
C1306       C  0.38175428  0.38411134  0.23285658    -0.38900
C1307       C  0.39112901  0.37631270  0.25076494     0.20000
C1308       C  0.39353005  0.37799641  0.28607638     0.22600
C1309       C  0.38680045  0.38751695  0.30621702    -0.39400
C1310       C  0.37743987  0.39522820  0.28844981     0.21400
N1311       N  0.36478878  0.40153113  0.24324531    -0.32700
C1312       C  0.36066009  0.40788232  0.27266436    -0.10200
C1313       C  0.36841690  0.40429113  0.30120338    -0.29000
N1314       N  0.40220499  0.36889404  0.29756704    -0.45600
C1315       C  0.40539529  0.36127342  0.26952337    -0.04900
C1316       C  0.39874582  0.36560912  0.23970472    -0.22300
H1317       H  0.37956592  0.38253201  0.20548853     0.19500
H1318       H  0.38837905  0.38849996  0.33402278     0.18300
H1319       H  0.36711857  0.40731987  0.32808830     0.14600
H1320       H  0.39901633  0.36118650  0.21386848     0.14500
H1321       H  0.36039694  0.40190486  0.21855913     0.32600
H1322       H  0.40541979  0.36765555  0.32322989     0.35400
C1323       C  0.32720480  0.49382409  0.24892924     0.21000
C1324       C  0.33432871  0.50587826  0.24793177    -0.38900
C1325       C  0.32668391  0.51760084  0.24812572     0.20000
C1326       C  0.31297453  0.51735252  0.24949204     0.22600
C1327       C  0.30584349  0.50529555  0.25041416    -0.39400
C1328       C  0.31349067  0.49357073  0.25000106     0.21400
N1329       N  0.33218493  0.48139630  0.25132170    -0.32700
C1330       C  0.32157142  0.47315130  0.25399851    -0.10200
C1331       C  0.30974354  0.48038948  0.25307206    -0.29000
N1332       N  0.30811494  0.52981729  0.25282475    -0.45600
C1333       C  0.31880014  0.53807274  0.25376748    -0.04900
C1334       C  0.33054172  0.53081250  0.25043932    -0.22300
H1335       H  0.34506053  0.50612833  0.24818253     0.19500
H1336       H  0.29515022  0.50506844  0.25252222     0.18300
H1337       H  0.29977546  0.47658113  0.25600475     0.14600
H1338       H  0.34058458  0.53460886  0.25216488     0.14500
H1339       H  0.34219415  0.47874580  0.25249902     0.32600
H1340       H  0.29819826  0.53248136  0.25629707     0.35400
C1341       C  0.55875121  0.68831373  0.46418561     0.21000
C1342       C  0.55186397  0.68417362  0.49357493    -0.38900
C1343       C  0.55713103  0.68847650  0.52565879     0.20000
C1344       C  0.56838272  0.69637400  0.52835792     0.22600
C1345       C  0.57531327  0.70050905  0.49886059    -0.39400
C1346       C  0.57005639  0.69614345  0.46664974     0.21400
N1347       N  0.55598205  0.68509648  0.43091465    -0.32700
C1348       C  0.56557811  0.69086437  0.41187668    -0.10200
C1349       C  0.57457113  0.69786377  0.43320567    -0.29000
N1350       N  0.57178389  0.69841789  0.56194319    -0.45600
C1351       C  0.56271642  0.69162148  0.58057720    -0.04900
C1352       C  0.55337507  0.68539072  0.55886201    -0.22300
H1353       H  0.54321678  0.67778309  0.49162205     0.19500
H1354       H  0.58429314  0.70641151  0.50087433     0.18300
H1355       H  0.58332785  0.70324965  0.42537105     0.14600
H1356       H  0.54530138  0.67894531  0.56631894     0.14500
H1357       H  0.54816340  0.67911395  0.42174722     0.32600
H1358       H  0.58011488  0.70354160  0.57151718     0.35400
C1359       C  0.41771130  0.69890624  0.53241670     0.21000
C1360       C  0.41089766  0.70281146  0.50211991    -0.38900
C1361       C  0.41676957  0.69902484  0.47047303     0.20000
C1362       C  0.42850811  0.69188762  0.46923192     0.22600
C1363       C  0.43523632  0.68789220  0.49942632    -0.39400
C1364       C  0.42937835  0.69166036  0.53097105     0.21400
N1365       N  0.41394251  0.70074010  0.56563537    -0.32700
C1366       C  0.42318480  0.69444820  0.58536328    -0.10200
C1367       C  0.43299493  0.68873676  0.56464392    -0.29000
N1368       N  0.43185339  0.68913766  0.43619544    -0.45600
C1369       C  0.42217474  0.69448896  0.41609480    -0.04900
C1370       C  0.41258218  0.70078533  0.43650502    -0.22300
H1371       H  0.40161112  0.70820391  0.50311323     0.19500
H1372       H  0.44425501  0.68205595  0.49841807     0.18300
H1373       H  0.44137332  0.68280894  0.57302819     0.14600
H1374       H  0.40359844  0.70564786  0.42772481     0.14500
H1375       H  0.40531936  0.70545238  0.57425557     0.32600
H1376       H  0.44006472  0.68365756  0.42784326     0.35400
C1377       C  0.38468986  0.63533223  0.31135658     0.21000
C1378       C  0.37646349  0.62709415  0.33079227    -0.38900
C1379       C  0.36861874  0.61806876  0.31152488     0.20000
C1380       C  0.36892062  0.61726617  0.27556810     0.22600
C1381       C  0.37716374  0.62555979  0.25604559    -0.39400
C1382       C  0.38502809  0.63463633  0.27538392     0.21400
N1383       N  0.39240827  0.64527842  0.32358656    -0.32700
C1384       C  0.39764377  0.65106778  0.29528752    -0.10200
C1385       C  0.39337061  0.64466879  0.26466764    -0.29000
N1386       N  0.35981813  0.60847337  0.26346661    -0.45600
C1387       C  0.35364762  0.60378146  0.29198078    -0.04900
C1388       C  0.35894488  0.60945918  0.32237915    -0.22300
H1389       H  0.37590768  0.62794077  0.35883200     0.19500
H1390       H  0.37714902  0.62525504  0.22790287     0.18300
H1391       H  0.39558353  0.64736962  0.23821461     0.14600
H1392       H  0.35567575  0.60800171  0.34876788     0.14500
H1393       H  0.39362662  0.64828173  0.34956236     0.32600
H1394       H  0.35752619  0.60627465  0.23745132     0.35400
C1395       C  0.48152135  0.67894689  0.26630929     0.21000
C1396       C  0.49285602  0.67079905  0.26690594    -0.38900
C1397       C  0.50507725  0.67750818  0.26579475     0.20000
C1398       C  0.50591680  0.69128193  0.26433527     0.22600
C1399       C  0.49459420  0.69941462  0.26374813    -0.39400
C1400       C  0.48238813  0.69271355  0.26470955     0.21400
N1401       N  0.46882985  0.67510189  0.26978512    -0.32700
C1402       C  0.46157798  0.68650000  0.27054911    -0.10200
C1403       C  0.46968093  0.69768265  0.26716499    -0.29000
N1404       N  0.51862062  0.69530312  0.26636616    -0.45600
C1405       C  0.52595023  0.68403984  0.26935051    -0.04900
C1406       C  0.51786320  0.67271518  0.26878079    -0.22300
H1407       H  0.49221587  0.66006659  0.26926153     0.19500
H1408       H  0.49525178  0.71019845  0.26373460     0.18300
H1409       H  0.46675838  0.70806862  0.26848111     0.14600
H1410       H  0.52087167  0.66244883  0.27222311     0.14500
H1411       H  0.46538676  0.66537478  0.27316759     0.32600
H1412       H  0.52204798  0.70514650  0.26743357     0.35400
C1413       C  0.67664137  0.57013403  0.53259037     0.21000
C1414       C  0.67141694  0.56439651  0.50182437    -0.38900
C1415       C  0.67648865  0.56939889  0.47077136     0.20000
C1416       C  0.68603788  0.57934020  0.47048021     0.22600
C1417       C  0.69125891  0.58505556  0.50122651    -0.39400
C1418       C  0.68619031  0.58006915  0.53223673     0.21400
N1419       N  0.67300468  0.56761203  0.56534310    -0.32700
C1420       C  0.68026525  0.57601881  0.58594575    -0.10200
C1421       C  0.68864218  0.58391751  0.56626780    -0.29000
N1422       N  0.68856099  0.58302167  0.43778171    -0.45600
C1423       C  0.68047761  0.57548721  0.41706272    -0.04900
C1424       C  0.67289216  0.56674970  0.43664018    -0.22300
H1425       H  0.66371377  0.55686612  0.50204360     0.19500
H1426       H  0.69847660  0.59305708  0.50099546     0.18300
H1427       H  0.69529190  0.59171385  0.57552666     0.14600
H1428       H  0.66530510  0.55989210  0.42729625     0.14500
H1429       H  0.66576819  0.56085055  0.57314534     0.32600
H1430       H  0.69495489  0.59061644  0.43013323     0.35400
C1431       C  0.62365321  0.61845902  0.31736537     0.21000
C1432       C  0.61613538  0.62762849  0.33646770    -0.38900
C1433       C  0.60622783  0.63422959  0.31783631     0.20000
C1434       C  0.60387606  0.63195276  0.28270365     0.22600
C1435       C  0.61139649  0.62264677  0.26348291    -0.39400
C1436       C  0.62138762  0.61598146  0.28226886     0.21400
N1437       N  0.63417758  0.61160585  0.32888765    -0.32700
C1438       C  0.63871800  0.60463518  0.30108050    -0.10200
C1439       C  0.63097689  0.60702379  0.27146431    -0.29000
N1440       N  0.59462649  0.64049226  0.27069568    -0.45600
C1441       C  0.59129561  0.64824866  0.29852123    -0.04900
C1442       C  0.59820575  0.64450768  0.32828229    -0.22300
H1443       H  0.61817585  0.62982745  0.36365025     0.19500
H1444       H  0.60989467  0.62105197  0.23582261     0.18300
H1445       H  0.63249280  0.60316481  0.24537254     0.14600
H1446       H  0.59798346  0.64924376  0.35376390     0.14500
H1447       H  0.63824972  0.61193624  0.35398331     0.32600
H1448       H  0.59136031  0.64147531  0.24499849     0.35400
C1449       C  0.72870287  0.37582266  0.18142534     0.21000
C1450       C  0.71650680  0.38240188  0.17708138    -0.38900
C1451       C  0.71370120  0.39243466  0.20186060     0.20000
C1452       C  0.72239988  0.39564141  0.22882170     0.22600
C1453       C  0.73455936  0.38907874  0.23313452    -0.39400
C1454       C  0.73733134  0.37907292  0.20842599     0.21400
N1455       N  0.73352008  0.36563754  0.16216477    -0.32700
C1456       C  0.74531619  0.36234221  0.17707518    -0.10200
C1457       C  0.74797977  0.37059056  0.20601809    -0.29000
N1458       N  0.71719199  0.40501823  0.24989975    -0.45600
C1459       C  0.70504409  0.40778480  0.23647910    -0.04900
C1460       C  0.70252968  0.40020537  0.20633847    -0.22300
H1461       H  0.70960640  0.37973311  0.15636634     0.19500
H1462       H  0.74125617  0.39141105  0.25456900     0.18300
H1463       H  0.75643514  0.37038393  0.22352808     0.14600
H1464       H  0.69354468  0.40001199  0.19068705     0.14500
H1465       H  0.72886144  0.36110717  0.14068078     0.32600
H1466       H  0.72145987  0.40897058  0.27269748     0.35400
C1467       C  0.67499178  0.44003218  0.45700715     0.21000
C1468       C  0.66773446  0.44297868  0.48712214    -0.38900
C1469       C  0.67437016  0.44091112  0.51883962     0.20000
C1470       C  0.68728145  0.43627478  0.52044947     0.22600
C1471       C  0.69457311  0.43335941  0.49023099    -0.39400
C1472       C  0.68790920  0.43540246  0.45841979     0.21400
N1473       N  0.67070013  0.44074288  0.42391546    -0.32700
C1474       C  0.68089272  0.43652880  0.40386636    -0.10200
C1475       C  0.69185642  0.43311739  0.42444314    -0.29000
N1476       N  0.69107755  0.43447951  0.55374251    -0.45600
C1477       C  0.68049298  0.43791832  0.57347652    -0.04900
C1478       C  0.66991375  0.44207923  0.55257582    -0.22300
H1479       H  0.65755403  0.44637072  0.48593034     0.19500
H1480       H  0.70459302  0.42951933  0.49141791     0.18300
H1481       H  0.70131436  0.42928755  0.41578176     0.14600
H1482       H  0.66011540  0.44505941  0.56087214     0.14500
H1483       H  0.66129362  0.44372513  0.41546991     0.32600
H1484       H  0.70016068  0.43072187  0.56245662     0.35400
C1485       C  0.62502003  0.39497016  0.27118734     0.21000
C1486       C  0.61629106  0.38683326  0.25139592    -0.38900
C1487       C  0.60949884  0.37696452  0.26988931     0.20000
C1488       C  0.61119314  0.37543452  0.30537970     0.22600
C1489       C  0.61974182  0.38364069  0.32514191    -0.39400
C1490       C  0.62659831  0.39336595  0.30668426     0.21400
N1491       N  0.63373644  0.40404775  0.25945998    -0.32700
C1492       C  0.64098026  0.40803664  0.28774464    -0.10200
C1493       C  0.63666587  0.40172097  0.31760094    -0.29000
N1494       N  0.60444084  0.36478051  0.31649596    -0.45600
C1495       C  0.59838323  0.35940924  0.28795135    -0.04900
C1496       C  0.60123443  0.36676559  0.25836502    -0.22300
H1497       H  0.61531887  0.38770983  0.22347298     0.19500
H1498       H  0.62141737  0.38214544  0.35265387     0.18300
H1499       H  0.64089976  0.40252967  0.34353411     0.14600
H1500       H  0.59808347  0.36464531  0.23186094     0.14500
H1501       H  0.63518716  0.40675393  0.23366039     0.32600
H1502       H  0.60429037  0.36114456  0.34180096     0.35400
C1503       C  0.68424354  0.49593002  0.26283888     0.21000
C1504       C  0.69205367  0.50750436  0.26682546    -0.38900
C1505       C  0.68518191  0.51968560  0.26566243     0.20000
C1506       C  0.67157245  0.52026197  0.26081228     0.22600
C1507       C  0.66377494  0.50870156  0.25686036    -0.39400
C1508       C  0.67063111  0.49653321  0.25812853     0.21400
N1509       N  0.68823530  0.48318350  0.26573437    -0.32700
C1510       C  0.67708916  0.47560872  0.26317294    -0.10200
C1511       C  0.66591409  0.48359014  0.25818331    -0.29000
N1512       N  0.66726475  0.53292229  0.26345449    -0.45600
C1513       C  0.67816435  0.54049593  0.27027358    -0.04900
C1514       C  0.68956257  0.53260443  0.27160542    -0.22300
H1515       H  0.70263049  0.50704406  0.27175904     0.19500
H1516       H  0.65308460  0.50914190  0.25430573     0.18300
H1517       H  0.65565843  0.48040954  0.25676060     0.14600
H1518       H  0.69956007  0.53578656  0.27809440     0.14500
H1519       H  0.69786801  0.47988372  0.27093772     0.32600
H1520       H  0.65741785  0.53613659  0.26242955     0.35400
C1521       C  0.38355780  0.73099845  0.77647763     0.21000
C1522       C  0.37777736  0.74368919  0.77818527    -0.38900
C1523       C  0.36679832  0.74495574  0.79998236     0.20000
C1524       C  0.36185867  0.73441400  0.81869789     0.22600
C1525       C  0.36775303  0.72169901  0.81732206    -0.39400
C1526       C  0.37880898  0.72042782  0.79551886     0.21400
N1527       N  0.39334175  0.72699996  0.75531461    -0.32700
C1528       C  0.39490304  0.71378419  0.76090165    -0.10200
C1529       C  0.38610135  0.70932864  0.78603365    -0.29000
N1530       N  0.35048894  0.73792480  0.83449027    -0.45600
C1531       C  0.34812709  0.75077274  0.82544197    -0.04900
C1532       C  0.35826891  0.75549386  0.80438992    -0.22300
H1533       H  0.38121563  0.75184344  0.76248107     0.19500
H1534       H  0.36370603  0.71329350  0.83103231     0.18300
H1535       H  0.38471614  0.69919740  0.79467784     0.14600
H1536       H  0.35900063  0.76508962  0.79206680     0.14500
H1537       H  0.39829406  0.73279169  0.73719200     0.32600
H1538       H  0.34434913  0.73166278  0.84862830     0.35400
C1539       C  0.30720335  0.79647184  0.75568995     0.21000
C1540       C  0.30430546  0.79946356  0.72079567    -0.38900
C1541       C  0.29363921  0.80823259  0.71528685     0.20000
C1542       C  0.28637181  0.81349003  0.74252174     0.22600
C1543       C  0.28922148  0.81045347  0.77732366    -0.39400
C1544       C  0.29993919  0.80179867  0.78281715     0.21400
N1545       N  0.31572940  0.78721994  0.76744686    -0.32700
C1546       C  0.31399606  0.78663348  0.80240339    -0.10200
C1547       C  0.30413364  0.79561549  0.81274603    -0.29000
N1548       N  0.27587673  0.82030741  0.73048680    -0.45600
C1549       C  0.27630559  0.81940455  0.69526830    -0.04900
C1550       C  0.28739234  0.81202504  0.68480331    -0.22300
H1551       H  0.30955986  0.79480279  0.69943886     0.19500
H1552       H  0.28312334  0.81405013  0.79847173     0.18300
H1553       H  0.29961693  0.79649011  0.83806963     0.14600
H1554       H  0.28996196  0.80886371  0.65872628     0.14500
H1555       H  0.32149450  0.78082749  0.75214673     0.32600
H1556       H  0.26834509  0.82459499  0.74537244     0.35400
C1557       C  0.26152648  0.63465670  0.80171387     0.21000
C1558       C  0.27319078  0.62715612  0.80595795    -0.38900
C1559       C  0.27535507  0.61706655  0.78085189     0.20000
C1560       C  0.26656730  0.61464941  0.75356276     0.22600
C1561       C  0.25485520  0.62204920  0.74953196    -0.39400
C1562       C  0.25270690  0.63210721  0.77465268     0.21400
N1563       N  0.25773520  0.64546719  0.82035729    -0.32700
C1564       C  0.24638738  0.64988551  0.80507371    -0.10200
C1565       C  0.24294690  0.64166215  0.77656594    -0.29000
N1566       N  0.27156275  0.60559496  0.73111174    -0.45600
C1567       C  0.28367584  0.60229391  0.74396387    -0.04900
C1568       C  0.28629420  0.60907204  0.77528589    -0.22300
H1569       H  0.28034186  0.62939223  0.82641885     0.19500
H1570       H  0.24818807  0.62047777  0.72759709     0.18300
H1571       H  0.23478571  0.64279960  0.75839344     0.14600
H1572       H  0.29539518  0.60895586  0.79045700     0.14500
H1573       H  0.26286325  0.64976677  0.84142121     0.32600
H1574       H  0.26735274  0.60248868  0.70739748     0.35400
C1575       C  0.28936225  0.72591890  0.81212188     0.21000
C1576       C  0.27960568  0.71971483  0.79143158    -0.38900
C1577       C  0.27293914  0.70912065  0.80672290     0.20000
C1578       C  0.27566817  0.70499025  0.84021422     0.22600
C1579       C  0.28549546  0.71124804  0.86104643    -0.39400
C1580       C  0.29229953  0.72184996  0.84555889     0.21400
N1581       N  0.29646951  0.73669364  0.80401950    -0.32700
C1582       C  0.30405635  0.73962434  0.83240130    -0.10200
C1583       C  0.30186044  0.73050243  0.85883512    -0.29000
N1584       N  0.26710129  0.69537408  0.84946081    -0.45600
C1585       C  0.25881075  0.69358785  0.82173732    -0.04900
C1586       C  0.26230124  0.70186586  0.79450450    -0.22300
H1587       H  0.27709723  0.72316677  0.76565248     0.19500
H1588       H  0.28744701  0.70832420  0.88758167     0.18300
H1589       H  0.30610358  0.73063604  0.88480150     0.14600
H1590       H  0.25726263  0.70298590  0.76973124     0.14500
H1591       H  0.29593679  0.74189153  0.78071565     0.32600
H1592       H  0.26637896  0.69097758  0.87381207     0.35400
C1593       C  0.19598223  0.78191833  0.67895941     0.21000
C1594       C  0.20657520  0.78748010  0.69796610    -0.38900
C1595       C  0.21366656  0.79745976  0.68130717     0.20000
C1596       C  0.21039106  0.80179523  0.64833429     0.22600
C1597       C  0.19964647  0.79628119  0.62930844    -0.39400
C1598       C  0.19259443  0.78610177  0.64589528     0.21400
N1599       N  0.18894356  0.77115049  0.68750495    -0.32700
C1600       C  0.18108989  0.76821171  0.65962490    -0.10200
C1601       C  0.18286025  0.77748602  0.63331461    -0.29000
N1602       N  0.21955686  0.81048052  0.63716094    -0.45600
C1603       C  0.22879451  0.81142252  0.66304370    -0.04900
C1604       C  0.22532765  0.80355753  0.69110325    -0.22300
H1605       H  0.20957774  0.78373145  0.72309519     0.19500
H1606       H  0.19741476  0.79916944  0.60288779     0.18300
H1607       H  0.17850305  0.77725592  0.60747263     0.14600
H1608       H  0.23090738  0.80196599  0.71486705     0.14500
H1609       H  0.18996867  0.76574322  0.71037471     0.32600
H1610       H  0.21993801  0.81478631  0.61263696     0.35400
C1611       C  0.18664118  0.70573048  0.70569313     0.21000
C1612       C  0.19745039  0.69695291  0.70689784    -0.38900
C1613       C  0.20126106  0.69269461  0.74006329     0.20000
C1614       C  0.19489418  0.69690053  0.76995332     0.22600
C1615       C  0.18410696  0.70577714  0.76876597    -0.39400
C1616       C  0.18021045  0.70996856  0.73544625     0.21400
N1617       N  0.18212746  0.71230689  0.67779641    -0.32700
C1618       C  0.17261727  0.72079122  0.68948911    -0.10200
C1619       C  0.17124992  0.71962603  0.72551639    -0.29000
N1620       N  0.20129064  0.69244001  0.79843053    -0.45600
C1621       C  0.21184821  0.68536944  0.78649178    -0.04900
C1622       C  0.21206904  0.68533033  0.75019708    -0.22300
H1623       H  0.20287819  0.69411105  0.68381501     0.19500
H1624       H  0.17946719  0.70959343  0.79213221     0.18300
H1625       H  0.16539176  0.72589177  0.74259943     0.14600
H1626       H  0.21969561  0.68123510  0.73357064     0.14500
H1627       H  0.18612216  0.71183741  0.65287004     0.32600
H1628       H  0.19907102  0.69490016  0.82418087     0.35400
C1629       C  0.25854333  0.82989329  0.45883863     0.21000
C1630       C  0.26359726  0.82205161  0.48605652    -0.38900
C1631       C  0.25941866  0.82567475  0.51977218     0.20000
C1632       C  0.25071605  0.83612840  0.52560039     0.22600
C1633       C  0.24584287  0.84401450  0.49862024    -0.39400
C1634       C  0.25017073  0.84055741  0.46524389     0.21400
N1635       N  0.26052643  0.82834671  0.42435649    -0.32700
C1636       C  0.25346570  0.83822797  0.40897947    -0.10200
C1637       C  0.24697016  0.84604725  0.43380693    -0.29000
N1638       N  0.24812400  0.83757767  0.55957602    -0.45600
C1639       C  0.25538194  0.82816462  0.57595023    -0.04900
C1640       C  0.26258801  0.82050050  0.55198875    -0.22300
H1641       H  0.27024617  0.81376091  0.48135700     0.19500
H1642       H  0.23912101  0.85225103  0.50328410     0.18300
H1643       H  0.24024243  0.85427249  0.42939779     0.14600
H1644       H  0.26924380  0.81230842  0.55741247     0.14500
H1645       H  0.26615593  0.82094593  0.41208131     0.32600
H1646       H  0.24209112  0.84484987  0.57101338     0.35400
C1647       C  0.36124924  0.74433609  0.22231788     0.21000
C1648       C  0.37194094  0.74392802  0.24603008    -0.38900
C1649       C  0.37985870  0.73242718  0.24423508     0.20000
C1650       C  0.37726838  0.72214468  0.22066210     0.22600
C1651       C  0.36658038  0.72256276  0.19703819    -0.39400
C1652       C  0.35869980  0.73406261  0.19877735     0.21400
N1653       N  0.35210590  0.75399419  0.21926684    -0.32700
C1654       C  0.34362688  0.74986916  0.19351743    -0.10200
C1655       C  0.34747420  0.73744509  0.18015536    -0.29000
N1656       N  0.38574652  0.71199845  0.22539995    -0.45600
C1657       C  0.39376550  0.71577446  0.25229915    -0.04900
C1658       C  0.39047353  0.72851235  0.26462087    -0.22300
H1659       H  0.37381295  0.75186684  0.26486286     0.19500
H1660       H  0.36443130  0.71442589  0.17900258     0.18300
H1661       H  0.34263572  0.73149482  0.16003364     0.14600
H1662       H  0.39482135  0.73388197  0.28656937     0.14500
H1663       H  0.35174193  0.76279125  0.23410888     0.32600
H1664       H  0.38572138  0.70282847  0.21209037     0.35400
C1665       C  0.32227110  0.75882669  0.97339836     0.21000
C1666       C  0.32205428  0.75104960  0.00357438    -0.38900
C1667       C  0.32228489  0.75819435  0.03540883     0.20000
C1668       C  0.32260885  0.77198978  0.03698053     0.22600
C1669       C  0.32272505  0.77973186  0.00690444    -0.39400
C1670       C  0.32255861  0.77261595  0.97520663     0.21400
N1671       N  0.32217671  0.75453982  0.93998380    -0.32700
C1672       C  0.32235809  0.76571346  0.92037196    -0.10200
C1673       C  0.32259455  0.77715378  0.94163802    -0.29000
N1674       N  0.32257622  0.77642605  0.07015647    -0.45600
C1675       C  0.32222784  0.76539664  0.09019214    -0.04900
C1676       C  0.32205063  0.75381982  0.06929305    -0.22300
H1677       H  0.32174239  0.74025339  0.00237536     0.19500
H1678       H  0.32290819  0.79053139  0.00809072     0.18300
H1679       H  0.32281459  0.78746893  0.93377285     0.14600
H1680       H  0.32142456  0.74356899  0.07753719     0.14500
H1681       H  0.32179777  0.74462883  0.93123922     0.32600
H1682       H  0.32268781  0.78639734  0.07844968     0.35400
C1683       C  0.29880226  0.79490454  0.25105728     0.21000
C1684       C  0.29169269  0.79684126  0.28192538    -0.38900
C1685       C  0.28405936  0.80850886  0.28386723     0.20000
C1686       C  0.28362432  0.81757487  0.25716171     0.22600
C1687       C  0.29072484  0.81563457  0.22624383    -0.39400
C1688       C  0.29829720  0.80390931  0.22418717     0.21400
N1689       N  0.30553793  0.78394621  0.24145432    -0.32700
C1690       C  0.30910161  0.78572288  0.20790565    -0.10200
C1691       C  0.30498514  0.79825751  0.19645561    -0.29000
N1692       N  0.27503010  0.82742682  0.26442821    -0.45600
C1693       C  0.26985877  0.82463022  0.29602295    -0.04900
C1694       C  0.27531699  0.81287615  0.30894472    -0.22300
H1695       H  0.29167068  0.78951724  0.30231746     0.19500
H1696       H  0.28995512  0.82246755  0.20479472     0.18300
H1697       H  0.30571014  0.80228745  0.17063618     0.14600
H1698       H  0.27298668  0.80793213  0.33291983     0.14500
H1699       H  0.30672764  0.77527953  0.25591815     0.32600
H1700       H  0.27254954  0.83524437  0.24798273     0.35400
C1701       C  0.26581109  0.63842711  0.18456751     0.21000
C1702       C  0.27886303  0.63352165  0.18478063    -0.38900
C1703       C  0.28118852  0.62236852  0.20568949     0.20000
C1704       C  0.27126896  0.61655220  0.22493902     0.22600
C1705       C  0.25822342  0.62144848  0.22469616    -0.39400
C1706       C  0.25591647  0.63260159  0.20381941     0.21400
N1707       N  0.26118024  0.64922362  0.16795362    -0.32700
C1708       C  0.24822483  0.65035313  0.17678372    -0.10200
C1709       C  0.24461320  0.64008874  0.19908481    -0.29000
N1710       N  0.27614668  0.60648573  0.24395585    -0.45600
C1711       C  0.28928117  0.60589223  0.23686966    -0.04900
C1712       C  0.29278143  0.61559991  0.21295867    -0.22300
H1713       H  0.28669131  0.63820379  0.17027191     0.19500
H1714       H  0.25050083  0.61707350  0.24020263     0.18300
H1715       H  0.23507923  0.63840968  0.21088978     0.14600
H1716       H  0.30257033  0.61770896  0.20314537     0.14500
H1717       H  0.26667423  0.65564852  0.15257083     0.32600
H1718       H  0.27093518  0.60061215  0.26138909     0.35400
C1719       C  0.23774062  0.67100244  0.02135493     0.21000
C1720       C  0.24579108  0.67193502  0.99176653    -0.38900
C1721       C  0.23904171  0.67292932  0.95967016     0.20000
C1722       C  0.22534988  0.67310102  0.95741432     0.22600
C1723       C  0.21732967  0.67216547  0.98689105    -0.39400
C1724       C  0.22406098  0.67107511  0.01883726     0.21400
N1725       N  0.24167538  0.67051784  0.05491651    -0.32700
C1726       C  0.23041098  0.67036563  0.07406790    -0.10200
C1727       C  0.21923102  0.67056824  0.05216807    -0.29000
N1728       N  0.22129085  0.67418601  0.92420379    -0.45600
C1729       C  0.23244291  0.67461588  0.90476782    -0.04900
C1730       C  0.24374679  0.67388023  0.92611063    -0.22300
H1731       H  0.25650846  0.67196479  0.99362056     0.19500
H1732       H  0.20661200  0.67238848  0.98510262     0.18300
H1733       H  0.20890491  0.67084022  0.05944959     0.14600
H1734       H  0.25401825  0.67408889  0.91830791     0.14500
H1735       H  0.25145800  0.67084299  0.06401540     0.32600
H1736       H  0.21145658  0.67438741  0.91546673     0.35400
C1737       C  0.27271143  0.70449085  0.14895425     0.21000
C1738       C  0.28645828  0.70719999  0.15003180    -0.38900
C1739       C  0.29000611  0.72082639  0.15176645     0.20000
C1740       C  0.28050873  0.73079665  0.15210774     0.22600
C1741       C  0.26693256  0.72811535  0.15090547    -0.39400
C1742       C  0.26343964  0.71465822  0.14961046     0.21400
N1743       N  0.26658216  0.69250856  0.14936480    -0.32700
C1744       C  0.25339806  0.69525016  0.15091401    -0.10200
C1745       C  0.25112800  0.70894501  0.15088793    -0.29000
N1746       N  0.28608412  0.74280824  0.15635289    -0.45600
C1747       C  0.29928820  0.74069040  0.15922108    -0.04900
C1748       C  0.30223522  0.72708669  0.15587133    -0.22300
H1749       H  0.29379114  0.69932526  0.15062286     0.19500
H1750       H  0.25958604  0.73597368  0.15224817     0.18300
H1751       H  0.24170721  0.71408087  0.15234788     0.14600
H1752       H  0.31186740  0.72240274  0.15808718     0.14500
H1753       H  0.27106831  0.68312383  0.15001385     0.32600
H1754       H  0.28108511  0.75191877  0.15803327     0.35400
C1755       C  0.16298587  0.73539408  0.45600775     0.21000
C1756       C  0.16618662  0.72828531  0.48597985    -0.38900
C1757       C  0.16351326  0.73475543  0.51760481     0.20000
C1758       C  0.15799937  0.74736013  0.51954910     0.22600
C1759       C  0.15472552  0.75452640  0.48934900    -0.39400
C1760       C  0.15751348  0.74803974  0.45742970     0.21400
N1761       N  0.16531193  0.73157817  0.42307420    -0.32700
C1762       C  0.16142746  0.74185045  0.40282983    -0.10200
C1763       C  0.15642633  0.75232789  0.42342106    -0.29000
N1764       N  0.15699529  0.75141214  0.55304803    -0.45600
C1765       C  0.16196744  0.74128427  0.57244307    -0.04900
C1766       C  0.16606898  0.73074136  0.55095803    -0.22300
H1767       H  0.17074182  0.71851338  0.48475600     0.19500
H1768       H  0.15065253  0.76451017  0.49060498     0.18300
H1769       H  0.15280232  0.76190813  0.41490445     0.14600
H1770       H  0.17066051  0.72145008  0.55839714     0.14500
H1771       H  0.16982695  0.72267390  0.41523253     0.32600
H1772       H  0.15328938  0.76055797  0.56191433     0.35400
C1773       C  0.20423055  0.77787807  0.33092622     0.21000
C1774       C  0.21759921  0.78184517  0.33115570    -0.38900
C1775       C  0.21986376  0.79565479  0.33341000     0.20000
C1776       C  0.20956738  0.80475773  0.33506178     0.22600
C1777       C  0.19622165  0.80078526  0.33533171    -0.39400
C1778       C  0.19396545  0.78699389  0.33331895     0.21400
N1779       N  0.19945356  0.76539773  0.32787012    -0.32700
C1780       C  0.18605873  0.76656428  0.32870110    -0.10200
C1781       C  0.18225300  0.77988418  0.33221618    -0.29000
N1782       N  0.21424829  0.81729097  0.33516973    -0.45600
C1783       C  0.22763897  0.81622534  0.33369052    -0.04900
C1784       C  0.23154298  0.80286263  0.33290588    -0.22300
H1785       H  0.22562572  0.77472008  0.32914628     0.19500
H1786       H  0.18818248  0.80792410  0.33646399     0.18300
H1787       H  0.17228491  0.78385742  0.33295218     0.14600
H1788       H  0.24151198  0.79895730  0.33085892     0.14500
H1789       H  0.20498509  0.75662737  0.32554836     0.32600
H1790       H  0.20861898  0.82603144  0.33599470     0.35400
C1791       C  0.19297446  0.69478121  0.20506717     0.21000
C1792       C  0.18414191  0.70560031  0.20591115    -0.38900
C1793       C  0.17986633  0.70971233  0.23898175     0.20000
C1794       C  0.18412944  0.70361440  0.26909056     0.22600
C1795       C  0.19297915  0.69276780  0.26825518    -0.39400
C1796       C  0.19717875  0.68857035  0.23507129     0.21400
N1797       N  0.19986182  0.69031710  0.17749851    -0.32700
C1798       C  0.20855630  0.68111169  0.18964974    -0.10200
C1799       C  0.20709878  0.67979052  0.22563759    -0.29000
N1800       N  0.17997722  0.71049454  0.29732211    -0.45600
C1801       C  0.17289772  0.72101782  0.28517944    -0.04900
C1802       C  0.17272723  0.72082081  0.24881841    -0.22300
H1803       H  0.18139468  0.71092743  0.18265293     0.19500
H1804       H  0.19689804  0.68841240  0.29179986     0.18300
H1805       H  0.21345555  0.67432722  0.24321550     0.14600
H1806       H  0.16886859  0.72843899  0.23183660     0.14500
H1807       H  0.19955946  0.69426372  0.15252465     0.32600
H1808       H  0.18268830  0.70868619  0.32309833     0.35400
C1809       C  0.26454205  0.37358459  0.78148596     0.21000
C1810       C  0.27410234  0.38347476  0.78955851    -0.38900
C1811       C  0.27793456  0.39157035  0.76173038     0.20000
C1812       C  0.27255248  0.38994748  0.72866075     0.22600
C1813       C  0.26309032  0.38009833  0.72069240    -0.39400
C1814       C  0.25932168  0.37203397  0.74829173     0.21400
N1815       N  0.25950132  0.36429905  0.80268069    -0.32700
C1816       C  0.25101917  0.35679536  0.78269777    -0.10200
C1817       C  0.25069698  0.36141222  0.74863959    -0.29000
N1818       N  0.27806632  0.39846097  0.70640489    -0.45600
C1819       C  0.28717146  0.40553554  0.72511428    -0.04900
C1820       C  0.28738138  0.40156710  0.75983915    -0.22300
H1821       H  0.27840843  0.38461448  0.81533550     0.19500
H1822       H  0.25909076  0.37867602  0.69466773     0.18300
H1823       H  0.24516308  0.35737905  0.72663364     0.14600
H1824       H  0.29384450  0.40520578  0.78055132     0.14500
H1825       H  0.26178208  0.36316051  0.82900688     0.32600
H1826       H  0.27610392  0.39906960  0.67974935     0.35400
C1827       C  0.19455931  0.29324057  0.69179289     0.21000
C1828       C  0.20703175  0.29949794  0.69437357    -0.38900
C1829       C  0.20926484  0.30745315  0.72438193     0.20000
C1830       C  0.19983906  0.30906328  0.74995937     0.22600
C1831       C  0.18734708  0.30286935  0.74726353    -0.39400
C1832       C  0.18511824  0.29493938  0.71725667     0.21400
N1833       N  0.19030185  0.28448685  0.66707049    -0.32700
C1834       C  0.17803011  0.28050085  0.67687176    -0.10200
C1835       C  0.17449498  0.28696479  0.70802759    -0.29000
N1836       N  0.20469908  0.31640934  0.77692651    -0.45600
C1837       C  0.21739413  0.31949937  0.76859655    -0.04900
C1838       C  0.22048152  0.31414672  0.73580732    -0.22300
H1839       H  0.21459104  0.29797968  0.67494816     0.19500
H1840       H  0.18003044  0.30383076  0.76753301     0.18300
H1841       H  0.16560493  0.28567484  0.72307198     0.14600
H1842       H  0.22993676  0.31460281  0.72282086     0.14500
H1843       H  0.19566453  0.28112472  0.64559552     0.32600
H1844       H  0.19974708  0.31870848  0.79992610     0.35400
C1845       C  0.36776939  0.27098723  0.76758904     0.21000
C1846       C  0.37758411  0.27151182  0.74199617    -0.38900
C1847       C  0.38474681  0.28349443  0.74053856     0.20000
C1848       C  0.38232103  0.29413006  0.76295375     0.22600
C1849       C  0.37246290  0.29361268  0.78851355    -0.39400
C1850       C  0.36528422  0.28160672  0.78995800     0.21400
N1851       N  0.35929130  0.26093155  0.77316640    -0.32700
C1852       C  0.35119908  0.26512079  0.79915921    -0.10200
C1853       C  0.35473191  0.27798107  0.81050303    -0.29000
N1854       N  0.39026634  0.30448833  0.75572998    -0.45600
C1855       C  0.39779285  0.30044615  0.72850048    -0.04900
C1856       C  0.39461351  0.28739960  0.71822759    -0.22300
H1857       H  0.37936372  0.26326108  0.72415603     0.19500
H1858       H  0.37041098  0.30200642  0.80566847     0.18300
H1859       H  0.34991789  0.28409529  0.83005140     0.14600
H1860       H  0.39877251  0.28165472  0.69692750     0.14500
H1861       H  0.35898711  0.25185457  0.75948815     0.32600
H1862       H  0.39037107  0.31384573  0.76809810     0.35400
C1863       C  0.27193620  0.29865977  0.84736331     0.21000
C1864       C  0.27563133  0.28564259  0.85532736    -0.38900
C1865       C  0.28915319  0.28289069  0.85328067     0.20000
C1866       C  0.29844803  0.29235776  0.84405669     0.22600
C1867       C  0.29473579  0.30555422  0.83655758    -0.39400
C1868       C  0.28108504  0.30834012  0.83860052     0.21400
N1869       N  0.25953563  0.30307838  0.84294499    -0.32700
C1870       C  0.26067804  0.31567600  0.83132414    -0.10200
C1871       C  0.27394876  0.31947236  0.82877575    -0.29000
N1872       N  0.31029914  0.28653868  0.83841936    -0.45600
C1873       C  0.30829107  0.27332746  0.84345505    -0.04900
C1874       C  0.29533952  0.27077225  0.85347948    -0.22300
H1875       H  0.26837943  0.27794560  0.86029889     0.19500
H1876       H  0.30180041  0.31283687  0.82756924     0.18300
H1877       H  0.27779491  0.32866394  0.81840913     0.14600
H1878       H  0.29070658  0.26111927  0.85667841     0.14500
H1879       H  0.25080066  0.29762052  0.84600712     0.32600
H1880       H  0.31875633  0.29100422  0.82828254     0.35400
C1881       C  0.21534657  0.20416686  0.63119121     0.21000
C1882       C  0.20159700  0.20582008  0.62992673    -0.38900
C1883       C  0.19714793  0.21900125  0.62974990     0.20000
C1884       C  0.20568796  0.22981948  0.63012696     0.22600
C1885       C  0.21956769  0.22814521  0.63108667    -0.39400
C1886       C  0.22406859  0.21484162  0.63184167     0.21400
N1887       N  0.22181865  0.19262116  0.63459758    -0.32700
C1888       C  0.23484069  0.19578622  0.63795175    -0.10200
C1889       C  0.23670003  0.20959248  0.63582159    -0.29000
N1890       N  0.19878504  0.24132421  0.63203469    -0.45600
C1891       C  0.18582331  0.23768369  0.63347204    -0.04900
C1892       C  0.18447692  0.22383580  0.63177145    -0.22300
H1893       H  0.19483061  0.19743223  0.63058973     0.19500
H1894       H  0.22631631  0.23654689  0.63251924     0.18300
H1895       H  0.24591360  0.21507742  0.63850860     0.14600
H1896       H  0.17545405  0.21800391  0.63279341     0.14500
H1897       H  0.21746040  0.18317229  0.63517098     0.32600
H1898       H  0.20267063  0.25097902  0.63387358     0.35400
C1899       C  0.29009580  0.19877950  0.73099788     0.21000
C1900       C  0.29714578  0.20036183  0.76251284    -0.38900
C1901       C  0.30443374  0.21223754  0.76637366     0.20000
C1902       C  0.30459609  0.22178806  0.74081834     0.22600
C1903       C  0.29749420  0.22023398  0.70939659    -0.39400
C1904       C  0.29026145  0.20833380  0.70547192     0.21400
N1905       N  0.28214985  0.18858065  0.72150652    -0.32700
C1906       C  0.27714263  0.19160593  0.68962021    -0.10200
C1907       C  0.28203851  0.20389162  0.67877607    -0.29000
N1908       N  0.31155305  0.23251869  0.75159099    -0.45600
C1909       C  0.31578143  0.22994623  0.78442955    -0.04900
C1910       C  0.31163415  0.21724851  0.79441678    -0.22300
H1911       H  0.29677603  0.19300124  0.78278502     0.19500
H1912       H  0.29740744  0.22784974  0.68974350     0.18300
H1913       H  0.27980892  0.20901967  0.65488322     0.14600
H1914       H  0.31290114  0.21258325  0.81938529     0.14500
H1915       H  0.28011326  0.18025132  0.73651101     0.32600
H1916       H  0.31274752  0.24141499  0.73815280     0.35400
C1917       C  0.26207904  0.37898968  0.18389838     0.21000
C1918       C  0.26358549  0.38943638  0.20844349    -0.38900
C1919       C  0.27640941  0.39478003  0.21202430     0.20000
C1920       C  0.28691216  0.39014297  0.19239240     0.22600
C1921       C  0.28538992  0.37971396  0.16772832    -0.39400
C1922       C  0.27255991  0.37430468  0.16428993     0.21400
N1923       N  0.25118375  0.37153738  0.17794425    -0.32700
C1924       C  0.25469532  0.36188592  0.15463073    -0.10200
C1925       C  0.26794482  0.36342745  0.14508754    -0.29000
N1926       N  0.29818494  0.39654464  0.20159281    -0.45600
C1927       C  0.29486745  0.40527980  0.22737082    -0.04900
C1928       C  0.28135428  0.40446654  0.23461189    -0.22300
H1929       H  0.25545044  0.39286124  0.22438785     0.19500
H1930       H  0.29367109  0.37583507  0.15304299     0.18300
H1931       H  0.27369225  0.35693756  0.12831224     0.14600
H1932       H  0.27593278  0.41005370  0.25411983     0.14500
H1933       H  0.24205180  0.37270232  0.19015954     0.32600
H1934       H  0.30761766  0.39489020  0.19143463     0.35400
C1935       C  0.23734554  0.34652787  0.00223310     0.21000
C1936       C  0.24405467  0.34957169  0.97155072    -0.38900
C1937       C  0.23741649  0.34626356  0.94031645     0.20000
C1938       C  0.22501574  0.34037684  0.93952191     0.22600
C1939       C  0.21821811  0.33744142  0.97029837    -0.39400
C1940       C  0.22488440  0.34075245  0.00165514     0.21400
N1941       N  0.24207612  0.34763723  0.03500256    -0.32700
C1942       C  0.23262636  0.34248229  0.05580725    -0.10200
C1943       C  0.22166074  0.33822467  0.03579035    -0.29000
N1944       N  0.22145766  0.33706756  0.90659021    -0.45600
C1945       C  0.23173427  0.34077244  0.88620070    -0.04900
C1946       C  0.24176718  0.34672002  0.90654317    -0.22300
H1947       H  0.25398456  0.35368969  0.97196595     0.19500
H1948       H  0.20869135  0.33245073  0.96988350     0.18300
H1949       H  0.21284206  0.33321078  0.04465666     0.14600
H1950       H  0.25134314  0.35027761  0.89835234     0.14500
H1951       H  0.25138845  0.35131972  0.04238999     0.32600
H1952       H  0.21289998  0.33188631  0.89892510     0.35400
C1953       C  0.17253687  0.27388492  0.45035743     0.21000
C1954       C  0.17662896  0.27836436  0.48370037    -0.38900
C1955       C  0.17057035  0.27208817  0.51195664     0.20000
C1956       C  0.16102750  0.26227741  0.50716563     0.22600
C1957       C  0.15710577  0.25766619  0.47394279    -0.39400
C1958       C  0.16328216  0.26378437  0.44582320     0.21400
N1959       N  0.17704312  0.27791232  0.41936739    -0.32700
C1960       C  0.17078444  0.27014057  0.39501968    -0.10200
C1961       C  0.16212066  0.26122221  0.41058579    -0.29000
N1962       N  0.15679452  0.25783247  0.53790681    -0.45600
C1963       C  0.16378380  0.26466758  0.56273446    -0.04900
C1964       C  0.17255532  0.27363203  0.54753233    -0.22300
H1965       H  0.18411044  0.28602612  0.48736549     0.19500
H1966       H  0.14989494  0.24974405  0.47027343     0.18300
H1967       H  0.15592263  0.25374847  0.39786354     0.14600
H1968       H  0.17947093  0.28031069  0.56069598     0.14500
H1969       H  0.18429926  0.28513573  0.41512067     0.32600
H1970       H  0.14985505  0.25026095  0.54172016     0.35400
C1971       C  0.21091178  0.32005468  0.22492290     0.21000
C1972       C  0.20980418  0.31492352  0.25855290    -0.38900
C1973       C  0.19861460  0.30695649  0.26439652     0.20000
C1974       C  0.18930807  0.30419411  0.23860575     0.22600
C1975       C  0.19043848  0.30932966  0.20493199    -0.39400
C1976       C  0.20156043  0.31742643  0.19916542     0.21400
N1977       N  0.22122009  0.32679200  0.21201162    -0.32700
C1978       C  0.21849214  0.32858284  0.17774130    -0.10200
C1979       C  0.20621955  0.32288390  0.16882993    -0.29000
N1980       N  0.18056466  0.29501198  0.24929572    -0.45600
C1981       C  0.18436403  0.29176669  0.28213273    -0.04900
C1982       C  0.19549810  0.29921582  0.29247622    -0.22300
H1983       H  0.21741975  0.31650416  0.27824420     0.19500
H1984       H  0.18348592  0.30671406  0.18429196     0.18300
H1985       H  0.20176125  0.32187693  0.14322547     0.14600
H1986       H  0.20130856  0.29808795  0.31607458     0.14500
H1987       H  0.22998923  0.32933489  0.22524466     0.32600
H1988       H  0.17327623  0.29045261  0.23373862     0.35400
C1989       C  0.38491309  0.28942374  0.20050050     0.21000
C1990       C  0.37563779  0.28757708  0.17321464    -0.38900
C1991       C  0.36590101  0.27776558  0.17841137     0.20000
C1992       C  0.36547935  0.27041579  0.20849503     0.22600
C1993       C  0.37473611  0.27223735  0.23570769    -0.39400
C1994       C  0.38445934  0.28200529  0.23051476     0.21400
N1995       N  0.39473263  0.29852402  0.20269154    -0.32700
C1996       C  0.40053435  0.29692242  0.23436955    -0.10200
C1997       C  0.39443453  0.28664978  0.25238551    -0.29000
N1998       N  0.35520866  0.26188238  0.20748200    -0.45600
C1999       C  0.34895281  0.26367964  0.17642449    -0.04900
C2000       C  0.35536771  0.27357810  0.15757912    -0.22300
H2001       H  0.37587794  0.29346879  0.14988212     0.19500
H2002       H  0.37428702  0.26657811  0.25941206     0.18300
H2003       H  0.39664141  0.28340076  0.27852336     0.14600
H2004       H  0.35276766  0.27722181  0.13207765     0.14500
H2005       H  0.39703202  0.30571047  0.18430874     0.32600
H2006       H  0.35264761  0.25534803  0.22718537     0.35400
C2007       C  0.33470955  0.25132214  0.02022703     0.21000
C2008       C  0.33821134  0.25864959  0.99077305    -0.38900
C2009       C  0.33575915  0.25233963  0.95841595     0.20000
C2010       C  0.33021090  0.23974132  0.95572473     0.22600
C2011       C  0.32671497  0.23243130  0.98511097    -0.39400
C2012       C  0.32923172  0.23869602  0.01738949     0.21400
N2013       N  0.33539753  0.25533594  0.05376154    -0.32700
C2014       C  0.33029362  0.24519962  0.07256011    -0.10200
C2015       C  0.32643526  0.23460669  0.05056465    -0.29000
N2016       N  0.32823944  0.23620753  0.92223779    -0.45600
C2017       C  0.33252337  0.24662270  0.90309292    -0.04900
C2018       C  0.33734094  0.25687257  0.92494857    -0.22300
H2019       H  0.34226804  0.26863904  0.99287522     0.19500
H2020       H  0.32212257  0.22267860  0.98297136     0.18300
H2021       H  0.32163951  0.22538107  0.05754879     0.14600
H2022       H  0.34108335  0.26653820  0.91763692     0.14500
H2023       H  0.33888220  0.26456163  0.06293594     0.32600
H2024       H  0.32371055  0.22740935  0.91333913     0.35400
C2025       C  0.29657119  0.29092297  0.12703311     0.21000
C2026       C  0.29393482  0.30472228  0.12821964    -0.38900
C2027       C  0.28068579  0.30841845  0.12163722     0.20000
C2028       C  0.27091234  0.29902921  0.11432099     0.22600
C2029       C  0.27353330  0.28532833  0.11307192    -0.39400
C2030       C  0.28665590  0.28167069  0.11995273     0.21400
N2031       N  0.30798452  0.28470485  0.13549557    -0.32700
C2032       C  0.30510693  0.27147500  0.13451193    -0.10200
C2033       C  0.29196296  0.26922708  0.12460447    -0.29000
N2034       N  0.25893728  0.30476814  0.11306471    -0.45600
C2035       C  0.26096353  0.31791272  0.11979555    -0.04900
C2036       C  0.27442803  0.32066804  0.12483707    -0.22300
H2037       H  0.30147866  0.31197676  0.13540596     0.19500
H2038       H  0.26575436  0.27799871  0.10894846     0.18300
H2039       H  0.28682864  0.25974687  0.12257099     0.14600
H2040       H  0.27885052  0.33007233  0.13296636     0.14500
H2041       H  0.31691187  0.28915590  0.14341973     0.32600
H2042       H  0.24981670  0.29990073  0.11006350     0.35400
C2043       C  0.26848015  0.18494703  0.45780383     0.21000
C2044       C  0.26514309  0.19222877  0.48811815    -0.38900
C2045       C  0.26764156  0.18582372  0.51987548     0.20000
C2046       C  0.27307063  0.17315648  0.52113519     0.22600
C2047       C  0.27648010  0.16595910  0.49100659    -0.39400
C2048       C  0.27392652  0.17229963  0.45943615     0.21400
N2049       N  0.26549718  0.18799295  0.42458607    -0.32700
C2050       C  0.26883977  0.17710422  0.40510926    -0.10200
C2051       C  0.27430556  0.16721555  0.42602570    -0.29000
N2052       N  0.27288962  0.16850221  0.55365154    -0.45600
C2053       C  0.26719538  0.17815431  0.57352500    -0.04900
C2054       C  0.26399706  0.18925357  0.55346849    -0.22300
H2055       H  0.26023946  0.20181887  0.48699208     0.19500
H2056       H  0.28006690  0.15579101  0.49200727     0.18300
H2057       H  0.27717376  0.15721207  0.41821914     0.14600
H2058       H  0.25859711  0.19806744  0.56165705     0.14500
H2059       H  0.26041852  0.19644128  0.41610349     0.32600
H2060       H  0.27577343  0.15897826  0.56136843     0.35400
C2061       C  0.22074804  0.20866069  0.33507445     0.21000
C2062       C  0.20736599  0.21248864  0.33646600    -0.38900
C2063       C  0.20478745  0.22598436  0.33006416     0.20000
C2064       C  0.21478132  0.23492221  0.32256342     0.22600
C2065       C  0.22818393  0.23112486  0.32150578    -0.39400
C2066       C  0.23078134  0.21764880  0.32821976     0.21400
N2067       N  0.22567375  0.19631022  0.33850129    -0.32700
C2068       C  0.23895229  0.19740029  0.33389908    -0.10200
C2069       C  0.24254959  0.21060103  0.32781866    -0.29000
N2070       N  0.20973877  0.24708610  0.31675010    -0.45600
C2071       C  0.19642231  0.24595774  0.32083143    -0.04900
C2072       C  0.19296690  0.23291526  0.32923229    -0.22300
H2073       H  0.19952643  0.20543734  0.34172311     0.19500
H2074       H  0.23599024  0.23811519  0.31548305     0.18300
H2075       H  0.25232294  0.21439168  0.32203091     0.14600
H2076       H  0.18315168  0.22897342  0.33375332     0.14500
H2077       H  0.22026222  0.18762653  0.34304174     0.32600
H2078       H  0.21513219  0.25565521  0.31095284     0.35400
C2079       C  0.29140427  0.19593630  0.24526806     0.21000
C2080       C  0.29708467  0.19776028  0.21234771    -0.38900
C2081       C  0.30420086  0.20971301  0.20819878     0.20000
C2082       C  0.30548725  0.21904738  0.23488923     0.22600
C2083       C  0.29989367  0.21718605  0.26771608    -0.39400
C2084       C  0.29279032  0.20529836  0.27182506     0.21400
N2085       N  0.28344299  0.18592907  0.25511503    -0.32700
C2086       C  0.27964631  0.18895100  0.28818456    -0.10200
C2087       C  0.28538989  0.20096966  0.29944626    -0.29000
N2088       N  0.31166484  0.23002313  0.22383363    -0.45600
C2089       C  0.31439843  0.22784711  0.18976791    -0.04900
C2090       C  0.30997991  0.21514668  0.17908081    -0.22300
H2091       H  0.29568106  0.19062254  0.19121001    -0.02900
H2092       H  0.30061273  0.22469386  0.28819288     0.18300
H2093       H  0.28403844  0.20613916  0.32404201     0.14600
H2094       H  0.31015516  0.21077921  0.15320137     0.14500
H2095       H  0.28039357  0.17785881  0.23950058     0.32600
H2096       H  0.31338090  0.23879894  0.23821907     0.35400
C2097       C  0.10348228  0.77814371  0.71935003     0.21000
C2098       C  0.10942793  0.76548286  0.72041603    -0.38900
C2099       C  0.11985124  0.76330203  0.69709670     0.20000
C2100       C  0.12406471  0.77297881  0.67447273     0.22600
C2101       C  0.11804470  0.78560882  0.67317579    -0.39400
C2102       C  0.10758429  0.78778979  0.69642493     0.21400
N2103       N  0.09414544  0.78304864  0.74076628    -0.32700
C2104       C  0.09225911  0.79591380  0.73143042    -0.10200
C2105       C  0.10038291  0.79919157  0.70363633    -0.29000
N2106       N  0.13495370  0.76889702  0.65743847    -0.45600
C2107       C  0.13781977  0.75654341  0.66947969    -0.04900
C2108       C  0.12843368  0.75268095  0.69392860    -0.22300
H2109       H  0.10651002  0.75806086  0.73900974     0.19500
H2110       H  0.12157918  0.79334543  0.65625434     0.18300
H2111       H  0.10142440  0.80883700  0.69166758     0.14600
H2112       H  0.12827526  0.74367359  0.70904717     0.14500
H2113       H  0.08971358  0.77811320  0.76136416     0.32600
H2114       H  0.14044338  0.77457758  0.64020604     0.35400
C2115       C  0.98331109  0.81971688  0.75297301     0.21000
C2116       C  0.99490586  0.81200670  0.75199334    -0.38900
C2117       C  0.00686805  0.81915144  0.75298362     0.20000
C2118       C  0.00729368  0.83295447  0.75492510     0.22600
C2119       C  0.99566700  0.84069215  0.75587827    -0.39400
C2120       C  0.98366644  0.83352566  0.75475548     0.21400
N2121       N  0.97079018  0.81522863  0.75513360    -0.32700
C2122       C  0.96306193  0.82622154  0.75842662    -0.10200
C2123       C  0.97072579  0.83784728  0.75802175    -0.29000
N2124       N  0.01989600  0.83725013  0.75867019    -0.45600
C2125       C  0.02749749  0.82608268  0.75940153    -0.04900
C2126       C  0.01972435  0.81462817  0.75554788    -0.22300
H2127       H  0.99463665  0.80120506  0.75178928     0.19500
H2128       H  0.99594499  0.85145893  0.75857347     0.18300
H2129       H  0.96737141  0.84801900  0.76182537     0.14600
H2130       H  0.02296972  0.80434869  0.75671580     0.14500
H2131       H  0.96775321  0.80526930  0.75606670     0.32600
H2132       H  0.02305560  0.84710568  0.76242538     0.35400
C2133       C  0.12326782  0.23422129  0.67616516     0.21000
C2134       C  0.11461697  0.22326527  0.67361162    -0.38900
C2135       C  0.10668283  0.22105275  0.70268835     0.20000
C2136       C  0.10734663  0.22908868  0.73225512     0.22600
C2137       C  0.11600828  0.24008336  0.73481279    -0.39400
C2138       C  0.12390676  0.24233428  0.70554549     0.21400
N2139       N  0.13254269  0.23773284  0.65319065    -0.32700
C2140       C  0.13927863  0.24814811  0.66785344    -0.10200
C2141       C  0.13402494  0.25136688  0.70056969    -0.29000
N2142       N  0.09944709  0.22427587  0.75714696    -0.45600
C2143       C  0.09374333  0.21309952  0.74325192    -0.04900
C2144       C  0.09796347  0.21082865  0.70928001    -0.22300
H2145       H  0.11438468  0.21668000  0.65103648     0.19500
H2146       H  0.11684500  0.24616987  0.75823653     0.18300
H2147       H  0.13760568  0.25862348  0.71952213     0.14600
H2148       H  0.09547908  0.20245925  0.69229683     0.14500
H2149       H  0.13466711  0.23286568  0.62969012     0.32600
H2150       H  0.09837537  0.22807150  0.78241147     0.35400
C2151       C  0.86126269  0.24314996  0.72133634     0.21000
C2152       C  0.86407162  0.23603566  0.75191457    -0.38900
C2153       C  0.87648851  0.22955742  0.75313976     0.20000
C2154       C  0.88535826  0.23018418  0.72599214     0.22600
C2155       C  0.88255763  0.23727147  0.69566882    -0.39400
C2156       C  0.87022231  0.24368068  0.69446638     0.21400
N2157       N  0.85002531  0.24972789  0.71287759    -0.32700
C2158       C  0.85186203  0.25443475  0.68026283    -0.10200
C2159       C  0.86442525  0.25084362  0.66822677    -0.29000
N2160       N  0.89620398  0.22281668  0.73254802    -0.45600
C2161       C  0.89433318  0.21732922  0.76407733    -0.04900
C2162       C  0.88214792  0.22135593  0.77790940    -0.22300
H2163       H  0.85703212  0.23538160  0.77286503     0.19500
H2164       H  0.88940396  0.23756399  0.67420962     0.18300
H2165       H  0.86877944  0.25288792  0.64330339     0.14600
H2166       H  0.87785242  0.21837156  0.80225989     0.14500
H2167       H  0.84156739  0.25063840  0.72813450     0.32600
H2168       H  0.90426788  0.22133550  0.71611038     0.35400
C2169       C  0.00817304  0.19249959  0.77449945     0.21000
C2170       C  0.99690649  0.20065323  0.77751823    -0.38900
C2171       C  0.98459918  0.19417154  0.77401079     0.20000
C2172       C  0.98354287  0.18056728  0.76787296     0.22600
C2173       C  0.99486245  0.17237921  0.76478326    -0.39400
C2174       C  0.00722104  0.17888558  0.76835409     0.21400
N2175       N  0.02090401  0.19619620  0.77910048    -0.32700
C2176       C  0.02822619  0.18490306  0.77596820    -0.10200
C2177       C  0.02003538  0.17386861  0.76909761    -0.29000
N2178       N  0.97070758  0.17672087  0.76848627    -0.45600
C2179       C  0.96355941  0.18793821  0.77543241    -0.04900
C2180       C  0.97192012  0.19901731  0.77869570    -0.22300
H2181       H  0.99766651  0.21122886  0.78339153     0.19500
H2182       H  0.99410178  0.16167598  0.76103843     0.18300
H2183       H  0.02299965  0.16352551  0.76650036     0.14600
H2184       H  0.96916304  0.20913296  0.78573507     0.14500
H2185       H  0.02437392  0.20578593  0.78522682     0.32600
H2186       H  0.96710640  0.16696013  0.76634250     0.35400
C2187       C  0.23606897  0.13275135  0.67097628     0.21000
C2188       C  0.22571187  0.12368573  0.66410830    -0.38900
C2189       C  0.22213102  0.11554591  0.69180560     0.20000
C2190       C  0.22843440  0.11635660  0.72392108     0.22600
C2191       C  0.23885874  0.12538011  0.73073858    -0.39400
C2192       C  0.24241677  0.13355130  0.70300004     0.21400
N2193       N  0.24010645  0.14262619  0.65041521    -0.32700
C2194       C  0.24902238  0.14992086  0.66934047    -0.10200
C2195       C  0.25084659  0.14440994  0.70228886    -0.29000
N2196       N  0.22227292  0.10859077  0.74691325    -0.45600
C2197       C  0.21190342  0.10290265  0.72944467    -0.04900
C2198       C  0.21158255  0.10687194  0.69486306    -0.22300
H2199       H  0.22035323  0.12349374  0.63956842     0.19500
H2200       H  0.24337844  0.12645432  0.75628696     0.18300
H2201       H  0.25653206  0.14842631  0.72403485     0.14600
H2202       H  0.20413751  0.10444478  0.67528448     0.14500
H2203       H  0.23627638  0.14489672  0.62586445     0.32600
H2204       H  0.22453141  0.10780098  0.77337514     0.35400
C2205       C  0.11099265  0.13486830  0.78041408     0.21000
C2206       C  0.11559121  0.12319672  0.76363557    -0.38900
C2207       C  0.12830832  0.11884060  0.77377904     0.20000
C2208       C  0.13579634  0.12561989  0.79873969     0.22600
C2209       C  0.13121963  0.13723749  0.81547368    -0.39400
C2210       C  0.11856404  0.14155769  0.80536742     0.21400
N2211       N  0.09941901  0.14127422  0.77495825    -0.32700
C2212       C  0.09970238  0.15209526  0.79663266    -0.10200
C2213       C  0.11145551  0.15255338  0.81605063    -0.29000
N2214       N  0.14749036  0.11953244  0.80388910    -0.45600
C2215       C  0.14756757  0.10876529  0.78208992    -0.04900
C2216       C  0.13575059  0.10798040  0.76280218    -0.22300
H2217       H  0.10974200  0.11794455  0.74402174     0.19500
H2218       H  0.13711791  0.14256578  0.83485830     0.18300
H2219       H  0.11451982  0.16011288  0.83489603     0.14600
H2220       H  0.13295132  0.10045106  0.74361533     0.14500
H2221       H  0.09191863  0.13859126  0.75724802     0.32600
H2222       H  0.15497271  0.12250481  0.82135607     0.35400
C2223       C  0.22151620  0.89111865  0.71360762     0.21000
C2224       C  0.23364416  0.88440529  0.71744732    -0.38900
C2225       C  0.23548563  0.87326239  0.69549540     0.20000
C2226       C  0.22596585  0.86905396  0.67163282     0.22600
C2227       C  0.21382625  0.87580493  0.66765211    -0.39400
C2228       C  0.21199925  0.88702633  0.68951095     0.21400
N2229       N  0.21704028  0.90138719  0.73309172    -0.32700
C2230       C  0.20456162  0.90389757  0.72147209    -0.10200
C2231       C  0.20110458  0.89521767  0.69402696    -0.29000
N2232       N  0.22976325  0.85765604  0.65567031    -0.45600
C2233       C  0.24180144  0.85451026  0.66953465    -0.04900
C2234       C  0.24569635  0.86415634  0.69429835    -0.22300
H2235       H  0.24095468  0.88740220  0.73685866     0.19500
H2236       H  0.20621371  0.87234860  0.64960113     0.18300
H2237       H  0.19164505  0.89451062  0.68055236     0.14600
H2238       H  0.25450699  0.86425911  0.71057940     0.14500
H2239       H  0.22197655  0.90605011  0.75399148     0.32600
H2240       H  0.22416131  0.85216643  0.63750502     0.35400
C2241       C  0.12771572  0.89098634  0.79641230     0.21000
C2242       C  0.12139390  0.88163696  0.81729757    -0.38900
C2243       C  0.11118525  0.87426860  0.80119495     0.20000
C2244       C  0.10750120  0.87601451  0.76679913     0.22600
C2245       C  0.11392069  0.88535903  0.74570989    -0.39400
C2246       C  0.12417948  0.89280178  0.76193105     0.21400
N2247       N  0.13800926  0.89881950  0.80553608    -0.32700
C2248       C  0.14121810  0.90568123  0.77673992    -0.10200
C2249       C  0.13275926  0.90227375  0.74893195    -0.29000
N2250       N  0.09771959  0.86742648  0.75760978    -0.45600
C2251       C  0.09529104  0.86016067  0.78639432    -0.04900
C2252       C  0.10347746  0.86418607  0.81402561    -0.22300
H2253       H  0.12434634  0.88007759  0.84406947     0.19500
H2254       H  0.11125477  0.88661114  0.71862471     0.18300
H2255       H  0.13312580  0.90588436  0.72258703     0.14600
H2256       H  0.10395658  0.86004178  0.83983256     0.14500
H2257       H  0.14283210  0.89917670  0.82971408     0.32600
H2258       H  0.09325787  0.86630844  0.73310028     0.35400
C2259       C  0.18558504  0.99309870  0.74623056     0.21000
C2260       C  0.19377411  0.00449523  0.74760899    -0.38900
C2261       C  0.18718950  0.01687281  0.74885205     0.20000
C2262       C  0.17349608  0.01779494  0.74856605     0.22600
C2263       C  0.16532809  0.00641368  0.74724720    -0.39400
C2264       C  0.17189541  0.99405752  0.74607196     0.21400
N2265       N  0.18937644  0.98022671  0.74762187    -0.32700
C2266       C  0.17803634  0.97292187  0.74854622    -0.10200
C2267       C  0.16692424  0.98121750  0.74733696    -0.29000
N2268       N  0.16963108  0.03060782  0.75172326    -0.45600
C2269       C  0.18090324  0.03797070  0.75430646    -0.04900
C2270       C  0.19208530  0.02973744  0.75255405    -0.22300
H2271       H  0.20447876  0.00376658  0.74871986     0.19500
H2272       H  0.15462645  0.00712197  0.74810039     0.18300
H2273       H  0.15662220  0.97830159  0.74925045     0.14600
H2274       H  0.20238045  0.03271650  0.75493266     0.14500
H2275       H  0.19908593  0.97666575  0.74952159     0.32600
H2276       H  0.15989551  0.03409437  0.75338005     0.35400
C2277       C  0.78235701  0.12020185  0.73818277     0.21000
C2278       C  0.78007679  0.12901227  0.71082638    -0.38900
C2279       C  0.77057305  0.13894581  0.71693463     0.20000
C2280       C  0.76365848  0.14000372  0.74771221     0.22600
C2281       C  0.76602276  0.13122377  0.77533247    -0.39400
C2282       C  0.77567549  0.12131614  0.76935696     0.21400
N2283       N  0.79156132  0.11052298  0.73954192    -0.32700
C2284       C  0.79092370  0.10550012  0.77197124    -0.10200
C2285       C  0.78105195  0.11190268  0.79128345    -0.29000
N2286       N  0.75536941  0.15057202  0.74706697    -0.45600
C2287       C  0.75714687  0.15632085  0.71565085    -0.04900
C2288       C  0.76665007  0.14935263  0.69646688    -0.22300
H2289       H  0.78557205  0.12840335  0.68683349     0.19500
H2290       H  0.76097231  0.13223020  0.79992056     0.18300
H2291       H  0.77860710  0.11033691  0.81824819     0.14600
H2292       H  0.77032710  0.15173800  0.67096351     0.14500
H2293       H  0.79831218  0.10794226  0.72015740     0.32600
H2294       H  0.74926158  0.15383190  0.76721060     0.35400
C2295       C  0.86971894  0.11708119  0.78443238     0.21000
C2296       C  0.87536138  0.12722144  0.76446930    -0.38900
C2297       C  0.88482121  0.13532496  0.78166700     0.20000
C2298       C  0.88833077  0.13346851  0.81614727     0.22600
C2299       C  0.88267803  0.12337670  0.83611157    -0.39400
C2300       C  0.87325741  0.11527457  0.81891712     0.21400
N2301       N  0.85978256  0.10875648  0.77501501    -0.32700
C2302       C  0.85685788  0.10174321  0.80384035    -0.10200
C2303       C  0.86516613  0.10542919  0.83161448    -0.29000
N2304       N  0.89697442  0.14288169  0.82705141    -0.45600
C2305       C  0.89901021  0.15083347  0.79940907    -0.04900
C2306       C  0.89163788  0.14641689  0.77051572    -0.22300
H2307       H  0.87233334  0.12891536  0.73781945     0.19500
H2308       H  0.88514109  0.12218096  0.86334797     0.18300
H2309       H  0.86475303  0.10199103  0.85812331     0.14600
H2310       H  0.89097179  0.15098906  0.74524817     0.14500
H2311       H  0.85475061  0.10845847  0.75113142     0.32600
H2312       H  0.90095543  0.14405757  0.85210455     0.35400
C2313       C  0.86544898  0.89219626  0.78557790     0.21000
C2314       C  0.87471557  0.88563739  0.76420793    -0.38900
C2315       C  0.88255843  0.87590332  0.78052847     0.20000
C2316       C  0.88116640  0.87292728  0.81533942     0.22600
C2317       C  0.87194948  0.87945362  0.83658732    -0.39400
C2318       C  0.86419404  0.88917003  0.82038731     0.21400
N2319       N  0.85638984  0.90138513  0.77623952    -0.32700
C2320       C  0.84931938  0.90408009  0.80535238    -0.10200
C2321       C  0.85397091  0.89672525  0.83337313    -0.29000
N2322       N  0.88923502  0.86289793  0.82436851    -0.45600
C2323       C  0.89586957  0.85939429  0.79520167    -0.04900
C2324       C  0.89205928  0.86733492  0.76727946    -0.22300
H2325       H  0.87558164  0.88776918  0.73682494     0.19500
H2326       H  0.87071187  0.87694538  0.86363457     0.18300
H2327       H  0.85006819  0.89657411  0.85947402     0.14600
H2328       H  0.89539298  0.86657910  0.74066981     0.14500
H2329       H  0.85481499  0.90522342  0.75144119     0.32600
H2330       H  0.88994301  0.85847029  0.84873334     0.35400
C2331       C  0.80900118  0.99154096  0.78212822     0.21000
C2332       C  0.80179460  0.00346454  0.78558336    -0.38900
C2333       C  0.80919547  0.01529151  0.78351624     0.20000
C2334       C  0.82275767  0.01525357  0.77833837     0.22600
C2335       C  0.82997289  0.00331239  0.77476872    -0.39400
C2336       C  0.82256631  0.99146660  0.77694015     0.21400
N2337       N  0.80442327  0.97905914  0.78609933    -0.32700
C2338       C  0.81513487  0.97094499  0.78376868    -0.10200
C2339       C  0.82663454  0.97830684  0.77773498    -0.29000
N2340       N  0.82759977  0.02777910  0.77973606    -0.45600
C2341       C  0.81705687  0.03585425  0.78587091    -0.04900
C2342       C  0.80539800  0.02841498  0.78828944    -0.22300
H2343       H  0.79126378  0.00352230  0.79074677     0.19500
H2344       H  0.84063453  0.00324761  0.77179636     0.18300
H2345       H  0.83669512  0.97460821  0.77615736     0.14600
H2346       H  0.79557689  0.03206417  0.79433622     0.14500
H2347       H  0.79470974  0.97629023  0.79185659     0.32600
H2348       H  0.83753765  0.03061900  0.77796338     0.35400
C2349       C  0.76799739  0.14673883  0.29213187     0.21000
C2350       C  0.77500433  0.14309072  0.26208501    -0.38900
C2351       C  0.78044690  0.13019487  0.26176703     0.20000
C2352       C  0.77901980  0.12159510  0.28930292     0.22600
C2353       C  0.77195146  0.12521765  0.31924474    -0.39400
C2354       C  0.76651606  0.13811144  0.31952068     0.21400
N2355       N  0.76281460  0.15876682  0.29991755    -0.32700
C2356       C  0.75807291  0.15789907  0.33272560    -0.10200
C2357       C  0.76008409  0.14503400  0.34552220    -0.29000
N2358       N  0.78571372  0.11019106  0.28347134    -0.45600
C2359       C  0.79144204  0.11151445  0.25197894    -0.04900
C2360       C  0.78834469  0.12384606  0.23756567    -0.22300
H2361       H  0.77645211  0.14993459  0.24095782     0.19500
H2362       H  0.77109368  0.11863445  0.34115873     0.18300
H2363       H  0.75787487  0.14134298  0.37108794     0.14600
H2364       H  0.79175045  0.12778950  0.21318545     0.14500
H2365       H  0.76309889  0.16715159  0.28419739     0.32600
H2366       H  0.78657748  0.10212269  0.30022117     0.35400
C2367       C  0.80833387  0.07799533  0.04152848     0.21000
C2368       C  0.80187184  0.08186803  0.01077316    -0.38900
C2369       C  0.80788983  0.07768860  0.97972226     0.20000
C2370       C  0.81929849  0.06999744  0.97943350     0.22600
C2371       C  0.82570490  0.06608178  0.01010222    -0.39400
C2372       C  0.81984669  0.07047279  0.04105681     0.21400
N2373       N  0.80523095  0.08154311  0.07431216    -0.32700
C2374       C  0.81491661  0.07633101  0.09468376    -0.10200
C2375       C  0.82417695  0.06933399  0.07489573    -0.29000
N2376       N  0.82362139  0.06814385  0.94687029    -0.45600
C2377       C  0.81508266  0.07491211  0.92628888    -0.04900
C2378       C  0.80503533  0.08089044  0.94570606    -0.22300
H2379       H  0.79315043  0.08815565  0.01100567     0.19500
H2380       H  0.83489569  0.06050955  0.00985474     0.18300
H2381       H  0.83309685  0.06443019  0.08397659     0.14600
H2382       H  0.79708149  0.08718223  0.93636509     0.14500
H2383       H  0.79728090  0.08748924  0.08223371     0.32600
H2384       H  0.83222243  0.06313196  0.93927435     0.35400
C2385       C  0.80479004  0.93035057  0.04088376     0.21000
C2386       C  0.79978867  0.92390412  0.01083387    -0.38900
C2387       C  0.80462723  0.92856320  0.97918313     0.20000
C2388       C  0.81379873  0.93882245  0.97762610     0.22600
C2389       C  0.81885890  0.94522874  0.00770779    -0.39400
C2390       C  0.81396952  0.94060581  0.03936817     0.21400
N2391       N  0.80190241  0.92762684  0.07404127    -0.32700
C2392       C  0.80929542  0.93618594  0.09383507    -0.10200
C2393       C  0.81696005  0.94445572  0.07316176    -0.29000
N2394       N  0.81700974  0.94120852  0.94446667    -0.45600
C2395       C  0.80986493  0.93238872  0.92475781    -0.04900
C2396       C  0.80199143  0.92435175  0.94548357    -0.22300
H2397       H  0.79270859  0.91580075  0.01202753     0.19500
H2398       H  0.82612370  0.95316631  0.00654917     0.18300
H2399       H  0.82397884  0.95203365  0.08171820     0.14600
H2400       H  0.79541000  0.91636648  0.93706607     0.14500
H2401       H  0.79550552  0.92020523  0.08270466     0.32600
H2402       H  0.82379776  0.94826867  0.93579441     0.35400
C2403       C  0.82018920  0.99577066  0.24169769     0.21000
C2404       C  0.82841805  0.00710564  0.24336952    -0.38900
C2405       C  0.82191692  0.01948774  0.24198604     0.20000
C2406       C  0.80827004  0.02049552  0.23874362     0.22600
C2407       C  0.80004989  0.00916691  0.23704165    -0.39400
C2408       C  0.80653691  0.99679128  0.23875468     0.21400
N2409       N  0.82397092  0.98289128  0.24051052    -0.32700
C2410       C  0.81266104  0.97563955  0.23663373    -0.10200
C2411       C  0.80157605  0.98397605  0.23563560    -0.29000
N2412       N  0.80459572  0.03332030  0.23535749    -0.45600
C2413       C  0.81597262  0.04055273  0.23649142    -0.04900
C2414       C  0.82697929  0.03227889  0.24089557    -0.22300
H2415       H  0.83911610  0.00633580  0.24477339     0.19500
H2416       H  0.78940762  0.00992459  0.23368406     0.18300
H2417       H  0.79133262  0.98108299  0.23141578     0.14600
H2418       H  0.83732840  0.03516359  0.24119739     0.14500
H2419       H  0.83368817  0.97928678  0.24068899     0.32600
H2420       H  0.79499203  0.03688077  0.23107826     0.35400
C2421       C  0.11836061  0.22381614  0.27189118     0.21000
C2422       C  0.12911728  0.22518061  0.29525216    -0.38900
C2423       C  0.13691747  0.23669862  0.29151346     0.20000
C2424       C  0.13421825  0.24606452  0.26639352     0.22600
C2425       C  0.12352831  0.24467050  0.24297249    -0.39400
C2426       C  0.11573180  0.23320809  0.24672409     0.21400
N2427       N  0.10971903  0.21359955  0.26918105    -0.32700
C2428       C  0.10161718  0.21650758  0.24195002    -0.10200
C2429       C  0.10504823  0.22865889  0.22734936    -0.29000
N2430       N  0.14320494  0.25596557  0.26768148    -0.45600
C2431       C  0.15179972  0.25296065  0.29384514    -0.04900
C2432       C  0.14813277  0.24097281  0.30935021    -0.22300
H2433       H  0.13133007  0.21776659  0.31463826     0.19500
H2434       H  0.12152504  0.25190865  0.22299213     0.18300
H2435       H  0.10060814  0.23330629  0.20483583     0.14600
H2436       H  0.15302232  0.23589511  0.33050723     0.14500
H2437       H  0.10965255  0.20495827  0.28403172     0.32600
H2438       H  0.14342087  0.26417700  0.25133833     0.35400
C2439       C  0.06490978  0.18501972  0.03023940     0.21000
C2440       C  0.06249883  0.17703686  0.00067994    -0.38900
C2441       C  0.06429033  0.18325305  0.96881328     0.20000
C2442       C  0.06824374  0.19644125  0.96642877     0.22600
C2443       C  0.07067363  0.20448241  0.99616109    -0.39400
C2444       C  0.06884896  0.19822885  0.02825448     0.21400
N2445       N  0.06437005  0.18116862  0.06335534    -0.32700
C2446       C  0.06803505  0.19191173  0.08291920    -0.10200
C2447       C  0.07087749  0.20283078  0.06202939    -0.29000
N2448       N  0.06980087  0.19973256  0.93294223    -0.45600
C2449       C  0.06683310  0.18852747  0.91415208    -0.04900
C2450       C  0.06327819  0.17808265  0.93559914    -0.22300
H2451       H  0.05966074  0.16664699  0.00240049     0.19500
H2452       H  0.07397545  0.21473110  0.99443127     0.18300
H2453       H  0.07434995  0.21260979  0.07032761     0.14600
H2454       H  0.06071313  0.16795207  0.92795838     0.14500
H2455       H  0.06201556  0.17164247  0.07209912     0.32600
H2456       H  0.07296930  0.20890693  0.92349976     0.35400
C2457       C  0.87249407  0.24801781  0.27073678     0.21000
C2458       C  0.88064573  0.24394769  0.24327776    -0.38900
C2459       C  0.88820650  0.23245663  0.24903551     0.20000
C2460       C  0.88778033  0.22552173  0.27985579     0.22600
C2461       C  0.87958925  0.22959442  0.30739442    -0.39400
C2462       C  0.87195007  0.24109633  0.30152543     0.21400
N2463       N  0.86370836  0.25808285  0.27065162    -0.32700
C2464       C  0.85731839  0.25753858  0.30145943    -0.10200
C2465       C  0.86234045  0.24712562  0.32157659    -0.29000
N2466       N  0.89568073  0.21469671  0.27826333    -0.45600
C2467       C  0.90111388  0.21480891  0.24614424    -0.04900
C2468       C  0.89665370  0.22569794  0.22721833    -0.22300
H2469       H  0.88084922  0.24916981  0.21886289     0.19500
H2470       H  0.87896026  0.22404592  0.33124387     0.18300
H2471       H  0.85911950  0.24396773  0.34688153     0.14600
H2472       H  0.89911376  0.22821063  0.20078480     0.14500
H2473       H  0.86175882  0.26444614  0.24998118     0.32600
H2474       H  0.89709885  0.20757274  0.29748973     0.35400
C2475       C  0.92395155  0.19885792  0.97436585     0.21000
C2476       C  0.91825685  0.20366066  0.00535711    -0.38900
C2477       C  0.92313930  0.19798351  0.03614411     0.20000
C2478       C  0.93299231  0.18836464  0.03588566     0.22600
C2479       C  0.93866797  0.18360364  0.00506649    -0.39400
C2480       C  0.93373633  0.18917139  0.97442901     0.21400
N2481       N  0.92034510  0.20177378  0.94155368    -0.32700
C2482       C  0.92777160  0.19372620  0.92081843    -0.10200
C2483       C  0.93631207  0.18583439  0.94038900    -0.29000
N2484       N  0.93557894  0.18412425  0.06811743    -0.45600
C2485       C  0.92730731  0.19100293  0.08924323    -0.04900
C2486       C  0.91937717  0.19980024  0.07034847    -0.22300
H2487       H  0.91034513  0.21095275  0.00541450     0.19500
H2488       H  0.94608984  0.17580534  0.00489582     0.18300
H2489       H  0.94299554  0.17816975  0.93100406     0.14600
H2490       H  0.91175320  0.20640340  0.08019183     0.14500
H2491       H  0.91281894  0.20827512  0.93381038     0.32600
H2492       H  0.94239224  0.17678255  0.07524526     0.35400
C2493       C  0.88886139  0.13395486  0.23345836     0.21000
C2494       C  0.87958828  0.12754310  0.25463201    -0.38900
C2495       C  0.87182871  0.11759170  0.23811548     0.20000
C2496       C  0.87328815  0.11435067  0.20323703     0.22600
C2497       C  0.88251398  0.12072630  0.18218389    -0.39400
C2498       C  0.89020483  0.13063917  0.19859870     0.21400
N2499       N  0.89667248  0.14442006  0.24204436    -0.32700
C2500       C  0.90288598  0.14781685  0.21233331    -0.10200
C2501       C  0.89916954  0.13938916  0.18476679    -0.29000
N2502       N  0.86403274  0.10554587  0.19273032    -0.45600
C2503       C  0.85646335  0.10318175  0.22082431    -0.04900
C2504       C  0.86110233  0.11037242  0.24992456    -0.22300
H2505       H  0.87816605  0.13044836  0.28155455     0.19500
H2506       H  0.88326440  0.11849954  0.15464350     0.18300
H2507       H  0.90212970  0.14000314  0.15786659     0.14600
H2508       H  0.85667216  0.11098428  0.27540539     0.14500
H2509       H  0.89725004  0.14935225  0.26614214     0.32600
H2510       H  0.86248090  0.10195448  0.16735895     0.35400
C2511       C  0.01279211  0.19222696  0.23515732     0.21000
C2512       C  0.00108495  0.19981284  0.23624660    -0.38900
C2513       C  0.98917505  0.19253050  0.23508959     0.20000
C2514       C  0.98894384  0.17872922  0.23293526     0.22600
C2515       C  0.00065512  0.17113661  0.23180636    -0.39400
C2516       C  0.01257166  0.17842336  0.23304978     0.21400
N2517       N  0.02529192  0.19682657  0.23303327    -0.32700
C2518       C  0.03311164  0.18590341  0.22928074    -0.10200
C2519       C  0.02553698  0.17422298  0.22952092    -0.29000
N2520       N  0.97640179  0.17424203  0.22963500    -0.45600
C2521       C  0.96857778  0.18525451  0.22947915    -0.04900
C2522       C  0.97619332  0.19684973  0.23307257    -0.22300
H2523       H  0.00123568  0.21061642  0.23675304     0.19500
H2524       H  0.00049580  0.16037200  0.22897140     0.18300
H2525       H  0.02895684  0.16409314  0.22534774     0.14600
H2526       H  0.97274973  0.20707220  0.23244850     0.14500
H2527       H  0.02824366  0.20681354  0.23221277     0.32600
H2528       H  0.97339265  0.16432850  0.22610534     0.35400
C2529       C  0.24296275  0.13264791  0.27540305     0.21000
C2530       C  0.24126969  0.12373888  0.24713817    -0.38900
C2531       C  0.23010108  0.11538701  0.24840960     0.20000
C2532       C  0.22127005  0.11590989  0.27572219     0.22600
C2533       C  0.22303979  0.12470995  0.30410947    -0.39400
C2534       C  0.23422503  0.13300494  0.30288092     0.21400
N2535       N  0.25187834  0.14260863  0.27843168    -0.32700
C2536       C  0.24871465  0.14945793  0.30796767    -0.10200
C2537       C  0.23791587  0.14353769  0.32418842    -0.29000
N2538       N  0.21064570  0.10816410  0.26886734    -0.45600
C2539       C  0.21266176  0.10274722  0.23686160    -0.04900
C2540       C  0.22479146  0.10683534  0.22349993    -0.22300
H2541       H  0.24777568  0.12379289  0.22493904     0.19500
H2542       H  0.21586476  0.12552232  0.32476497     0.18300
H2543       H  0.23279446  0.14716802  0.34704189     0.14600
H2544       H  0.22866948  0.10471041  0.19787400     0.14500
H2545       H  0.25907909  0.14492177  0.26021624     0.32600
H2546       H  0.20216147  0.10730430  0.28402691     0.35400
C2547       C  0.18100282  0.07375647  0.01077294     0.21000
C2548       C  0.17435320  0.06924920  0.98066091    -0.38900
C2549       C  0.18004195  0.07291318  0.94918840     0.20000
C2550       C  0.19157151  0.08039256  0.94771286     0.22600
C2551       C  0.19822823  0.08495499  0.97793713    -0.39400
C2552       C  0.19245047  0.08137731  0.00954334     0.21400
N2553       N  0.17717880  0.07213258  0.04371079    -0.32700
C2554       C  0.18614783  0.07886159  0.06372742    -0.10200
C2555       C  0.19589413  0.08472053  0.04343364    -0.29000
N2556       N  0.19465332  0.08289518  0.91450421    -0.45600
C2557       C  0.18492372  0.07706828  0.89490909    -0.04900
C2558       C  0.17565962  0.07073909  0.91560098    -0.22300
H2559       H  0.16523273  0.06356700  0.98167546     0.19500
H2560       H  0.20706169  0.09107749  0.97691406     0.18300
H2561       H  0.20413100  0.09088411  0.05221015     0.14600
H2562       H  0.16675211  0.06552011  0.90721112     0.14500
H2563       H  0.16874779  0.06707452  0.05201736     0.32600
H2564       H  0.20263238  0.08854243  0.90576345     0.35400
C2565       C  0.11822036  0.14269083  0.17530119     0.21000
C2566       C  0.12805025  0.13691770  0.15457821    -0.38900
C2567       C  0.13488641  0.12623996  0.16927394     0.20000
C2568       C  0.13216344  0.12159496  0.20215709     0.22600
C2569       C  0.12231883  0.12744367  0.22308155    -0.39400
C2570       C  0.11543951  0.13820295  0.20830819     0.21400
N2571       N  0.11038583  0.15295705  0.16696091    -0.32700
C2572       C  0.10247819  0.15510731  0.19468787    -0.10200
C2573       C  0.10534641  0.14614506  0.22121751    -0.29000
N2574       N  0.14039238  0.11152601  0.21032440    -0.45600
C2575       C  0.14843261  0.10993939  0.18250985    -0.04900
C2576       C  0.14523734  0.11886449  0.15636425    -0.22300
H2577       H  0.13027743  0.14054973  0.12892877     0.19500
H2578       H  0.12023501  0.12394086  0.24893612     0.18300
H2579       H  0.10069655  0.14552622  0.24637124     0.14600
H2580       H  0.15007145  0.12002356  0.13159484     0.14500
H2581       H  0.11042845  0.15821241  0.14371018     0.32600
H2582       H  0.14076560  0.10632455  0.23364035     0.35400
C2583       C  0.21307623  0.89803229  0.26717415     0.21000
C2584       C  0.21416991  0.89016548  0.29692334    -0.38900
C2585       C  0.22451084  0.88082896  0.29683616     0.20000
C2586       C  0.23317309  0.87951007  0.26936256     0.22600
C2587       C  0.23208158  0.88738383  0.23957852    -0.39400
C2588       C  0.22165616  0.89664266  0.23948933     0.21400
N2589       N  0.20335119  0.90668595  0.25962674    -0.32700
C2590       C  0.20560843  0.91069753  0.22674187    -0.10200
C2591       C  0.21701586  0.90474939  0.21336193    -0.29000
N2592       N  0.24140184  0.86915631  0.27421613    -0.45600
C2593       C  0.23787469  0.86369573  0.30489835    -0.04900
C2594       C  0.22742451  0.87082584  0.31982233    -0.22300
H2595       H  0.20711544  0.89084668  0.31788911     0.19500
H2596       H  0.23849856  0.88597271  0.21744633     0.18300
H2597       H  0.22093815  0.90565129  0.18741650     0.14600
H2598       H  0.22217018  0.86848092  0.34335362     0.14500
H2599       H  0.19524331  0.90912814  0.27515584     0.32600
H2600       H  0.24835745  0.86568523  0.25638004     0.35400
C2601       C  0.17611564  0.94016028  0.94075033     0.21000
C2602       C  0.16971165  0.94532302  0.97021351    -0.38900
C2603       C  0.17531351  0.94182659  0.00228527     0.20000
C2604       C  0.18647369  0.93384080  0.00476579     0.22600
C2605       C  0.19282881  0.92860571  0.97527055    -0.39400
C2606       C  0.18719836  0.93206658  0.94316129     0.21400
N2607       N  0.17252251  0.94175698  0.90741076    -0.32700
C2608       C  0.18131596  0.93459088  0.88839303    -0.10200
C2609       C  0.19064519  0.92838250  0.90973045    -0.29000
N2610       N  0.18953510  0.93154608  0.03819502    -0.45600
C2611       C  0.18017654  0.93798357  0.05708015    -0.04900
C2612       C  0.17116710  0.94458146  0.03564303    -0.22300
H2613       H  0.16088970  0.95142562  0.96829889     0.19500
H2614       H  0.20139102  0.92214349  0.97720843     0.18300
H2615       H  0.19869668  0.92190560  0.90189335     0.14600
H2616       H  0.16250966  0.95022525  0.04337816     0.14500
H2617       H  0.16441948  0.94719471  0.89816767     0.32600
H2618       H  0.19722056  0.92556146  0.04755123     0.35400
C2619       C  0.18530020  0.02021599  0.20131310     0.21000
C2620       C  0.19276897  0.00846250  0.19928364    -0.38900
C2621       C  0.18555554  0.99656579  0.20134720     0.20000
C2622       C  0.17191943  0.99636048  0.20518763     0.22600
C2623       C  0.16441229  0.00816426  0.20696849    -0.39400
C2624       C  0.17164839  0.02010535  0.20484570     0.21400
N2625       N  0.18981279  0.03272144  0.19828487    -0.32700
C2626       C  0.17899097  0.04067976  0.19967800    -0.10200
C2627       C  0.16743672  0.03320759  0.20379634    -0.29000
N2628       N  0.16735654  0.98373609  0.20401838    -0.45600
C2629       C  0.17815703  0.97591336  0.19893422    -0.04900
C2630       C  0.18968922  0.98355803  0.19746428    -0.22300
H2631       H  0.20338493  0.00857164  0.19539614     0.19500
H2632       H  0.15371200  0.00804814  0.20888730     0.18300
H2633       H  0.15733106  0.03682060  0.20462485     0.14600
H2634       H  0.19964939  0.98011396  0.19219208     0.14500
H2635       H  0.19962361  0.03563215  0.19426698     0.32600
H2636       H  0.15745371  0.98068691  0.20466161     0.35400
C2637       C  0.11241637  0.79195445  0.27080609     0.21000
C2638       C  0.12343902  0.79084803  0.29337690    -0.38900
C2639       C  0.12952857  0.77822293  0.29419811     0.20000
C2640       C  0.12499009  0.76760510  0.27396078     0.22600
C2641       C  0.11403557  0.76871402  0.25142310    -0.39400
C2642       C  0.10793861  0.78126702  0.25067998     0.21400
N2643       N  0.10515873  0.80293357  0.26427981    -0.32700
C2644       C  0.09604530  0.79918588  0.23975341    -0.10200
C2645       C  0.09746679  0.78573193  0.23072783    -0.29000
N2646       N  0.13265045  0.75681407  0.27843403    -0.45600
C2647       C  0.14225061  0.76048248  0.30168052    -0.04900
C2648       C  0.14057080  0.77379908  0.31227104    -0.22300
H2649       H  0.12710004  0.79922678  0.30878931     0.19500
H2650       H  0.11062504  0.76044007  0.23523772     0.18300
H2651       H  0.09185914  0.78008602  0.21136051     0.14600
H2652       H  0.14678418  0.77962508  0.32988012     0.14500
H2653       H  0.10656236  0.81247060  0.27506169     0.32600
H2654       H  0.13139316  0.74756276  0.26597559     0.35400
C2655       C  0.05934926  0.82291626  0.01958529     0.21000
C2656       C  0.05358099  0.82793493  0.98913489    -0.38900
C2657       C  0.05887871  0.82310534  0.95781518     0.20000
C2658       C  0.06912395  0.81392462  0.95678267     0.22600
C2659       C  0.07481904  0.80879150  0.98731696    -0.39400
C2660       C  0.06953187  0.81365919  0.01871605     0.21400
N2661       N  0.05672284  0.82668057  0.05248214    -0.32700
C2662       C  0.06527556  0.81977438  0.07278636    -0.10200
C2663       C  0.07337358  0.81147813  0.05271247    -0.29000
N2664       N  0.07298464  0.81168351  0.92377128    -0.45600
C2665       C  0.06517836  0.81956641  0.90375786    -0.04900
C2666       C  0.05620149  0.82673419  0.92408252    -0.22300
H2667       H  0.04584180  0.83541015  0.98978932     0.19500
H2668       H  0.08304671  0.80186596  0.98670156     0.18300
H2669       H  0.08137562  0.80517103  0.06169043     0.14600
H2670       H  0.04904267  0.83404457  0.91544042     0.14500
H2671       H  0.04982775  0.83382803  0.06055629     0.32600
H2672       H  0.08075181  0.80556128  0.91550349     0.35400
C2673       C  0.10806510  0.87886290  0.18931625     0.21000
C2674       C  0.11402703  0.88988093  0.20639799    -0.38900
C2675       C  0.12498937  0.89549322  0.18967989     0.20000
C2676       C  0.12963314  0.89047944  0.15836451     0.22600
C2677       C  0.12368859  0.87949554  0.14128618    -0.39400
C2678       C  0.11274308  0.87391280  0.15796611     0.21400
N2679       N  0.09791000  0.87137409  0.20052823    -0.32700
C2680       C  0.09617320  0.86155846  0.17620498    -0.10200
C2681       C  0.10518749  0.86288234  0.14917140    -0.29000
N2682       N  0.14034521  0.89731378  0.14823418    -0.45600
C2683       C  0.14259045  0.90677496  0.17319629    -0.04900
C2684       C  0.13320685  0.90597871  0.19952504    -0.22300
H2685       H  0.11051820  0.89367278  0.23113806     0.19500
H2686       H  0.12744258  0.87545997  0.11705085     0.18300
H2687       H  0.10637252  0.85634786  0.12674140     0.14600
H2688       H  0.13259732  0.91210383  0.22287863     0.14500
H2689       H  0.09276993  0.87260422  0.22378942     0.32600
H2690       H  0.14589421  0.89554958  0.12584729     0.35400
C2691       C  0.92512371  0.81731731  0.01998984     0.21000
C2692       C  0.92071417  0.81021970  0.99029135    -0.38900
C2693       C  0.92463874  0.81539088  0.95831720     0.20000
C2694       C  0.93234664  0.82678463  0.95616914     0.22600
C2695       C  0.93668036  0.83394231  0.98586355    -0.39400
C2696       C  0.93276954  0.82875583  0.01784120     0.21400
N2697       N  0.92230825  0.81472088  0.05325508    -0.32700
C2698       C  0.92808693  0.82462905  0.07244348    -0.10200
C2699       C  0.93477620  0.83355321  0.05131503    -0.29000
N2700       N  0.93427286  0.82995943  0.92281056    -0.45600
C2701       C  0.92768709  0.82058728  0.90353271    -0.04900
C2702       C  0.92159450  0.81127696  0.92474820    -0.22300
H2703       H  0.91449412  0.80144651  0.99195619     0.19500
H2704       H  0.94246793  0.84300948  0.98415966     0.18300
H2705       H  0.94002605  0.84254079  0.05927595     0.14600
H2706       H  0.91536533  0.80295354  0.91673993     0.14500
H2707       H  0.91645146  0.80692409  0.06227711     0.32600
H2708       H  0.93937193  0.83826731  0.91372162     0.35400
C2709       C  0.88161124  0.87830876  0.21150047     0.21000
C2710       C  0.87666805  0.88935054  0.23044381    -0.38900
C2711       C  0.86460569  0.89468973  0.21818516     0.20000
C2712       C  0.85801140  0.88930358  0.18949116     0.22600
C2713       C  0.86288246  0.87828039  0.17078163    -0.39400
C2714       C  0.87493964  0.87307629  0.18274751     0.21400
N2715       N  0.89287308  0.87143042  0.21748191    -0.32700
C2716       C  0.89333470  0.86183336  0.19219719    -0.10200
C2717       C  0.88232414  0.86257894  0.17008742    -0.29000
N2718       N  0.84693720  0.89619369  0.18252962    -0.45600
C2719       C  0.84635993  0.90612669  0.20676448    -0.04900
C2720       C  0.85719958  0.90551751  0.22969188    -0.22300
H2721       H  0.88187802  0.89353994  0.25281828     0.19500
H2722       H  0.85771702  0.87414328  0.14826213     0.18300
H2723       H  0.87994513  0.85615927  0.14798710     0.14600
H2724       H  0.85940596  0.91212681  0.25151964     0.14500
H2725       H  0.89975413  0.87309082  0.23758251     0.32600
H2726       H  0.84017200  0.89427280  0.16229391     0.35400
C2727       C  0.98420667  0.83444595  0.22466871     0.21000
C2728       C  0.99598125  0.84195665  0.22729397    -0.38900
C2729       C  0.00787306  0.83464572  0.22589776     0.20000
C2730       C  0.00802309  0.82088911  0.22207785     0.22600
C2731       C  0.99625223  0.81336812  0.21968982    -0.39400
C2732       C  0.98437437  0.82067662  0.22118436     0.21400
N2733       N  0.97170404  0.83911022  0.22219150    -0.32700
C2734       C  0.96385206  0.82823561  0.21698882    -0.10200
C2735       C  0.97140282  0.81655803  0.21654547    -0.29000
N2736       N  0.02052215  0.81643994  0.21802229    -0.45600
C2737       C  0.02843067  0.82742446  0.21906205    -0.04900
C2738       C  0.02088368  0.83895491  0.22434451    -0.22300
H2739       H  0.99589796  0.85275125  0.22886406     0.19500
H2740       H  0.99633491  0.80265830  0.21553582     0.18300
H2741       H  0.96794448  0.80648248  0.21137257     0.14600
H2742       H  0.02435132  0.84918264  0.22459140     0.14500
H2743       H  0.96876907  0.84910636  0.22228805     0.32600
H2744       H  0.02341748  0.80660398  0.21287620     0.35400
C2745       C  0.75049812  0.87876043  0.71267509     0.21000
C2746       C  0.75242943  0.88841530  0.73921203    -0.38900
C2747       C  0.76489487  0.89470659  0.74019507     0.20000
C2748       C  0.77465834  0.89169623  0.71633202     0.22600
C2749       C  0.77270825  0.88203827  0.68975950    -0.39400
C2750       C  0.76026441  0.87566188  0.68896205     0.21400
N2751       N  0.74001635  0.87057369  0.70830702    -0.32700
C2752       C  0.74310800  0.86196684  0.68189305    -0.10200
C2753       C  0.75565108  0.86501059  0.66889991    -0.29000
N2754       N  0.78588128  0.89848146  0.72407873    -0.45600
C2755       C  0.78331878  0.90578032  0.75328864    -0.04900
C2756       C  0.77028856  0.90372079  0.76400291    -0.22300
H2757       H  0.74494667  0.89050603  0.75850926     0.19500
H2758       H  0.78048889  0.87932868  0.67182603     0.18300
H2759       H  0.76109193  0.85967684  0.64900318     0.14600
H2760       H  0.76555732  0.90788312  0.78684546     0.14500
H2761       H  0.73160070  0.87052862  0.72384903     0.32600
H2762       H  0.79489872  0.89779711  0.71105869     0.35400
C2763       C  0.62611757  0.73514013  0.80021370     0.21000
C2764       C  0.61917862  0.72307250  0.80417739    -0.38900
C2765       C  0.60895811  0.72054249  0.77972939     0.20000
C2766       C  0.60592237  0.72937016  0.75347166     0.22600
C2767       C  0.61280672  0.74138620  0.74961898    -0.39400
C2768       C  0.62298036  0.74387465  0.77391792     0.21400
N2769       N  0.63646507  0.73979812  0.81931250    -0.32700
C2770       C  0.63993184  0.75159769  0.80492996    -0.10200
C2771       C  0.63165998  0.75438937  0.77655425    -0.29000
N2772       N  0.59625717  0.72447500  0.73264680    -0.45600
C2773       C  0.59306843  0.71241127  0.74559308    -0.04900
C2774       C  0.60073193  0.70960973  0.77506624    -0.22300
H2775       H  0.62168348  0.71608411  0.82438761     0.19500
H2776       H  0.61055648  0.74820692  0.72882069     0.18300
H2777       H  0.63189149  0.76289912  0.75963853     0.14600
H2778       H  0.60062682  0.70059997  0.79022328     0.14500
H2779       H  0.64090299  0.73511577  0.84050447     0.32600
H2780       H  0.59232400  0.72891150  0.71040530     0.35400
C2781       C  0.67526503  0.80472443  0.75583110     0.21000
C2782       C  0.67768217  0.80922828  0.72203673    -0.38900
C2783       C  0.68828383  0.81821127  0.71874106     0.20000
C2784       C  0.69583024  0.82244445  0.74706919     0.22600
C2785       C  0.69325208  0.81814479  0.78091341    -0.39400
C2786       C  0.68274544  0.80907737  0.78414949     0.21400
N2787       N  0.66741933  0.79448887  0.76465418    -0.32700
C2788       C  0.66993431  0.79219421  0.79886063    -0.10200
C2789       C  0.67937289  0.80124417  0.81186406    -0.29000
N2790       N  0.70665252  0.82902144  0.73657767    -0.45600
C2791       C  0.70617214  0.82894294  0.70129930    -0.04900
C2792       C  0.69465450  0.82246130  0.68926784    -0.22300
H2793       H  0.67240153  0.80518718  0.69958522     0.19500
H2794       H  0.69966964  0.82079082  0.80269188     0.18300
H2795       H  0.68413001  0.80116007  0.83722174     0.14600
H2796       H  0.69198679  0.81984389  0.66272354     0.14500
H2797       H  0.66177865  0.78866645  0.74729561     0.32600
H2798       H  0.71451239  0.83236110  0.75236499     0.35400
C2799       C  0.71724080  0.62073359  0.76584187     0.21000
C2800       C  0.72994487  0.62645289  0.76710097    -0.38900
C2801       C  0.73148998  0.63757236  0.78939496     0.20000
C2802       C  0.72118670  0.64268040  0.80893102     0.22600
C2803       C  0.70843874  0.63695645  0.80766554    -0.39400
C2804       C  0.70689481  0.62576328  0.78543228     0.21400
N2805       N  0.71318850  0.61028744  0.74606394    -0.32700
C2806       C  0.70017271  0.60854607  0.75319545    -0.10200
C2807       C  0.69587202  0.61803533  0.77759404    -0.29000
N2808       N  0.72503771  0.65384965  0.82621224    -0.45600
C2809       C  0.73785211  0.65598221  0.81722304    -0.04900
C2810       C  0.74222839  0.64586130  0.79468047    -0.22300
H2811       H  0.73798213  0.62268060  0.75133229     0.19500
H2812       H  0.70027478  0.64104958  0.82242021     0.18300
H2813       H  0.68596432  0.61926572  0.78769818     0.14600
H2814       H  0.75178911  0.64494287  0.78239609     0.14500
H2815       H  0.71889575  0.60476458  0.72849789     0.32600
H2816       H  0.71904208  0.65999482  0.84154845     0.35400
C2817       C  0.71959366  0.72044552  0.84655923     0.21000
C2818       C  0.71690616  0.73412562  0.84795606    -0.38900
C2819       C  0.70350245  0.73761167  0.84741903     0.20000
C2820       C  0.69342917  0.72822257  0.84593292     0.22600
C2821       C  0.69614007  0.71441603  0.84475289    -0.39400
C2822       C  0.70966770  0.71088643  0.84516339     0.21400
N2823       N  0.73157036  0.71478380  0.84447223    -0.32700
C2824       C  0.72942661  0.70147238  0.84173972    -0.10200
C2825       C  0.71586916  0.69856475  0.84247615    -0.29000
N2826       N  0.68153254  0.73429567  0.84345501    -0.45600
C2827       C  0.68418342  0.74758510  0.84274240    -0.04900
C2828       C  0.69776738  0.74998695  0.84556999    -0.22300
H2829       H  0.72472006  0.74154653  0.84821349     0.19500
H2830       H  0.68833538  0.70701387  0.84267860     0.18300
H2831       H  0.71120771  0.68885944  0.83988950     0.14600
H2832       H  0.70283202  0.75951162  0.84507880     0.14500
H2833       H  0.74069277  0.71973865  0.84448040     0.32600
H2834       H  0.67227849  0.72969016  0.84060084     0.35400
C2835       C  0.86337560  0.76712933  0.70228497     0.21000
C2836       C  0.87432252  0.76755679  0.72530247    -0.38900
C2837       C  0.88206634  0.77923108  0.72476406     0.20000
C2838       C  0.87919823  0.78963284  0.70267642     0.22600
C2839       C  0.86824590  0.78919666  0.67965958    -0.39400
C2840       C  0.86043200  0.77756111  0.68043299     0.21400
N2841       N  0.85395907  0.75761783  0.69985042    -0.32700
C2842       C  0.84476956  0.76200546  0.67652625    -0.10200
C2843       C  0.84860346  0.77441089  0.66363731    -0.29000
N2844       N  0.88748329  0.79997779  0.70884008    -0.45600
C2845       C  0.89559218  0.79625242  0.73536752    -0.04900
C2846       C  0.89256535  0.78331327  0.74582045    -0.22300
H2847       H  0.87636334  0.75958998  0.74327026     0.19500
H2848       H  0.86571367  0.79751691  0.66325814     0.18300
H2849       H  0.84321578  0.78065363  0.64568492     0.14600
H2850       H  0.89698706  0.77789990  0.76713481     0.14500
H2851       H  0.85367425  0.74890190  0.71432772     0.32600
H2852       H  0.88718243  0.80928000  0.69696203     0.35400
C2853       C  0.78577025  0.78823308  0.68431880     0.21000
C2854       C  0.77545759  0.79406262  0.70338609    -0.38900
C2855       C  0.76800913  0.80376681  0.68612767     0.20000
C2856       C  0.77070867  0.80757428  0.65251531     0.22600
C2857       C  0.78111809  0.80174426  0.63337751    -0.39400
C2858       C  0.78854178  0.79188348  0.65060573     0.21400
N2859       N  0.79322435  0.77780685  0.69380567    -0.32700
C2860       C  0.80078409  0.77457959  0.66599399    -0.10200
C2861       C  0.79831777  0.78329092  0.63860688    -0.29000
N2862       N  0.76160824  0.81644748  0.64139974    -0.45600
C2863       C  0.75296930  0.81811725  0.66796939    -0.04900
C2864       C  0.75671615  0.81039143  0.69633491    -0.22300
H2865       H  0.77302364  0.79082680  0.72927360     0.19500
H2866       H  0.78295285  0.80430601  0.60662287     0.18300
H2867       H  0.80230522  0.78271560  0.61261348     0.14600
H2868       H  0.75165498  0.80945569  0.72085139     0.14500
H2869       H  0.79270035  0.77278252  0.71734555     0.32600
H2870       H  0.76096203  0.82062736  0.61673220     0.35400
C2871       C  0.80259456  0.71674708  0.74251272     0.21000
C2872       C  0.79966204  0.71349071  0.77703913    -0.38900
C2873       C  0.79024208  0.70332345  0.78139116     0.20000
C2874       C  0.78414449  0.69693865  0.75341809     0.22600
C2875       C  0.78697431  0.70029337  0.71880655    -0.39400
C2876       C  0.79648156  0.71041910  0.71445418     0.21400
N2877       N  0.81023833  0.72685971  0.73182690    -0.32700
C2878       C  0.80913623  0.72709149  0.69661343    -0.10200
C2879       C  0.80054318  0.71692890  0.68485668    -0.29000
N2880       N  0.77454837  0.68872080  0.76444979    -0.45600
C2881       C  0.77447172  0.68973196  0.79979383    -0.04900
C2882       C  0.78414098  0.69889333  0.81114247    -0.22300
H2883       H  0.80399462  0.71888720  0.79896068     0.19500
H2884       H  0.78175223  0.69573944  0.69692598     0.18300
H2885       H  0.79688979  0.71519455  0.65862356     0.14600
H2886       H  0.78567679  0.70274221  0.83731870     0.14500
H2887       H  0.81523641  0.73378486  0.74778012     0.32600
H2888       H  0.76771734  0.68357370  0.74863146     0.35400
C2889       C  0.72715253  0.64612297  0.22810678     0.21000
C2890       C  0.72545285  0.63755547  0.25620740    -0.38900
C2891       C  0.71572505  0.62766790  0.25172915     0.20000
C2892       C  0.70814339  0.62644526  0.22164640     0.22600
C2893       C  0.70977979  0.63512922  0.19352102    -0.39400
C2894       C  0.71963024  0.64500781  0.19793617     0.21400
N2895       N  0.73601577  0.65605319  0.22585926    -0.32700
C2896       C  0.73429543  0.66139681  0.19389151    -0.10200
C2897       C  0.72403296  0.65479977  0.17577418    -0.29000
N2898       N  0.69939093  0.61634132  0.22431747    -0.45600
C2899       C  0.70144363  0.61114253  0.25634908    -0.04900
C2900       C  0.71158249  0.61794083  0.27409973    -0.22300
H2901       H  0.73134694  0.63847902  0.27981361     0.19500
H2902       H  0.70387369  0.63422542  0.16993697     0.18300
H2903       H  0.72042334  0.65668432  0.14972693     0.14600
H2904       H  0.71517017  0.61624598  0.30028573     0.14500
H2905       H  0.74281289  0.65890723  0.24523639     0.32600
H2906       H  0.69226428  0.61336797  0.20585941     0.35400
C2907       C  0.74652393  0.67671329  0.97008507     0.21000
C2908       C  0.73851054  0.67644400  0.99989140    -0.38900
C2909       C  0.74530888  0.67635496  0.03210719     0.20000
C2910       C  0.75900082  0.67648332  0.03431924     0.22600
C2911       C  0.76696632  0.67666928  0.00458787    -0.39400
C2912       C  0.76020527  0.67682259  0.97249716     0.21400
N2913       N  0.74256007  0.67758789  0.93661012    -0.32700
C2914       C  0.75380516  0.67831104  0.91743414    -0.10200
C2915       C  0.76500213  0.67781309  0.93915487    -0.29000
N2916       N  0.76311075  0.67731300  0.06768068    -0.45600
C2917       C  0.75200050  0.67779885  0.08728963    -0.04900
C2918       C  0.74066692  0.67710324  0.06582334    -0.22300
H2919       H  0.72779210  0.67668365  0.99816128     0.19500
H2920       H  0.77767785  0.67709199  0.00635772     0.18300
H2921       H  0.77530659  0.67835897  0.93177478     0.14600
H2922       H  0.73039866  0.67781642  0.07346510     0.14500
H2923       H  0.73275926  0.67808838  0.92774158     0.32600
H2924       H  0.77294460  0.67796307  0.07629433     0.35400
C2925       C  0.86721504  0.77862781  0.30010591     0.21000
C2926       C  0.87625536  0.78918451  0.30458089    -0.38900
C2927       C  0.88463018  0.79154121  0.27647155     0.20000
C2928       C  0.88397912  0.78404891  0.24596343     0.22600
C2929       C  0.87494305  0.77341533  0.24153308    -0.39400
C2930       C  0.86662965  0.77096634  0.26991120     0.21400
N2931       N  0.85762082  0.77505843  0.32205453    -0.32700
C2932       C  0.85079726  0.76497730  0.30608939    -0.10200
C2933       C  0.85622429  0.76209415  0.27340810    -0.29000
N2934       N  0.89227083  0.78904086  0.22218077    -0.45600
C2935       C  0.89820618  0.79977940  0.23774684    -0.04900
C2936       C  0.89377819  0.80155212  0.27171414    -0.22300
H2937       H  0.87647500  0.79538223  0.32788427     0.19500
H2938       H  0.87416818  0.76773507  0.21742684     0.18300
H2939       H  0.85261526  0.75510655  0.25379457     0.14600
H2940       H  0.89634007  0.80955524  0.28979626     0.14500
H2941       H  0.85544995  0.77960962  0.34594093     0.32600
H2942       H  0.89340554  0.78570244  0.19652163     0.35400
C2943       C  0.82930529  0.75271557  0.46641661     0.21000
C2944       C  0.83410035  0.75731546  0.49883655    -0.38900
C2945       C  0.82720234  0.75290630  0.52793956     0.20000
C2946       C  0.81643506  0.74437549  0.52510585     0.22600
C2947       C  0.81147810  0.73992139  0.49249404    -0.39400
C2948       C  0.81831231  0.74450222  0.46319129     0.21400
N2949       N  0.83404815  0.75576319  0.43504640    -0.32700
C2950       C  0.82598943  0.74963343  0.41122483    -0.10200
C2951       C  0.81598183  0.74252037  0.42784972    -0.29000
N2952       N  0.81185166  0.74143864  0.55689287    -0.45600
C2953       C  0.81966146  0.74831378  0.57998385    -0.04900
C2954       C  0.82928904  0.75562862  0.56282001    -0.22300
H2955       H  0.84257044  0.76392586  0.50120684     0.19500
H2956       H  0.80291178  0.73344043  0.49011473     0.18300
H2957       H  0.80801460  0.73680937  0.41578075     0.14600
H2958       H  0.83695027  0.76190239  0.57435792     0.14500
H2959       H  0.84203073  0.76210032  0.43026574     0.32600
H2960       H  0.80382185  0.73527273  0.56252146     0.35400
C2961       C  0.78012779  0.70615583  0.24755409     0.21000
C2962       C  0.78207093  0.71345834  0.27874222    -0.38900
C2963       C  0.79425382  0.72017685  0.28227378     0.20000
C2964       C  0.80375117  0.71962517  0.25667332     0.22600
C2965       C  0.80174591  0.71242615  0.22529829    -0.39400
C2966       C  0.78954604  0.70570548  0.22171723     0.21400
N2967       N  0.76908792  0.69967688  0.23715536    -0.32700
C2968       C  0.77126112  0.69517570  0.20419659    -0.10200
C2969       C  0.78405677  0.69864776  0.19376669    -0.29000
N2970       N  0.81423040  0.72730312  0.26558605    -0.45600
C2971       C  0.81142829  0.73294769  0.29707400    -0.04900
C2972       C  0.79899634  0.72865181  0.30829885    -0.22300
H2973       H  0.77450539  0.71412504  0.29844309     0.19500
H2974       H  0.80902570  0.71234229  0.20482405     0.18300
H2975       H  0.78848630  0.69702311  0.16857697     0.14600
H2976       H  0.79385484  0.73161451  0.33170598     0.14500
H2977       H  0.76024958  0.69899258  0.25094854     0.32600
H2978       H  0.82253697  0.72889964  0.25024847     0.35400
C2979       C  0.62067766  0.74483463  0.21172128     0.21000
C2980       C  0.61069330  0.74326312  0.23632864    -0.38900
C2981       C  0.60395092  0.73106423  0.23496472     0.20000
C2982       C  0.60692064  0.72111041  0.21094313     0.22600
C2983       C  0.61692936  0.72270642  0.18609366    -0.39400
C2984       C  0.62369083  0.73500201  0.18745313     0.21400
N2985       N  0.62875275  0.75536896  0.20874632    -0.32700
C2986       C  0.63709352  0.75236618  0.18234293    -0.10200
C2987       C  0.63418392  0.73969905  0.16826523    -0.29000
N2988       N  0.59951703  0.71017938  0.21653626    -0.45600
C2989       C  0.59185524  0.71326212  0.24433886    -0.04900
C2990       C  0.59429605  0.72622035  0.25636525    -0.22300
H2991       H  0.60852002  0.75090036  0.25564574     0.19500
H2992       H  0.61943551  0.71488181  0.16759530     0.18300
H2993       H  0.63920375  0.73444117  0.14747003     0.14600
H2994       H  0.58999300  0.73121853  0.27869541     0.14500
H2995       H  0.62854023  0.76401131  0.22421986     0.32600
H2996       H  0.59998071  0.70104967  0.20311662     0.35400
C2997       C  0.65300202  0.76435992  0.02617358     0.21000
C2998       C  0.65376645  0.75645415  0.99581443    -0.38900
C2999       C  0.65384530  0.76342315  0.96446402     0.20000
C3000       C  0.65323245  0.77719629  0.96346052     0.22600
C3001       C  0.65246921  0.78510358  0.99381369    -0.39400
C3002       C  0.65237679  0.77813204  0.02514223     0.21400
N3003       N  0.65368546  0.76020114  0.05916828    -0.32700
C3004       C  0.65359313  0.77140872  0.07945922    -0.10200
C3005       C  0.65266441  0.78279277  0.05898440    -0.29000
N3006       N  0.65430087  0.78144204  0.93066604    -0.45600
C3007       C  0.65569397  0.77029605  0.91046221    -0.04900
C3008       C  0.65535022  0.75885241  0.93076977    -0.22300
H3009       H  0.65462492  0.74569478  0.99659461     0.19500
H3010       H  0.65236286  0.79589978  0.99313266     0.18300
H3011       H  0.65278883  0.79314117  0.06741545     0.14600
H3012       H  0.65667754  0.74858003  0.92251530     0.14500
H3013       H  0.65483756  0.75033809  0.06697049     0.32600
H3014       H  0.65445542  0.79138037  0.92294507     0.35400
C3015       C  0.69964945  0.73871175  0.14155143     0.21000
C3016       C  0.71325564  0.73639424  0.13989875    -0.38900
C3017       C  0.71706736  0.72306241  0.14160734     0.20000
C3018       C  0.70806932  0.71269898  0.14461159     0.22600
C3019       C  0.69433473  0.71502955  0.14594477    -0.39400
C3020       C  0.69047386  0.72848440  0.14422306     0.21400
N3021       N  0.69375477  0.75062369  0.14347772    -0.32700
C3022       C  0.68069641  0.74807466  0.14735090    -0.10200
C3023       C  0.67816278  0.73438032  0.14750760    -0.29000
N3024       N  0.71446487  0.70107637  0.14942400    -0.45600
C3025       C  0.72752757  0.70428719  0.15014916    -0.04900
C3026       C  0.72950261  0.71782787  0.14470104    -0.22300
H3027       H  0.72040276  0.74445206  0.13903676     0.19500
H3028       H  0.68725466  0.70705381  0.14951547     0.18300
H3029       H  0.66875174  0.72946939  0.15156274     0.14600
H3030       H  0.73878721  0.72326711  0.14507481     0.14500
H3031       H  0.69840891  0.75994132  0.14307523     0.32600
H3032       H  0.71023699  0.69178335  0.15436195     0.35400
C3033       C  0.75320466  0.87663413  0.28583198     0.21000
C3034       C  0.75463985  0.88685356  0.26160319    -0.38900
C3035       C  0.76621942  0.89453822  0.26482039     0.20000
C3036       C  0.77568102  0.89226493  0.29035185     0.22600
C3037       C  0.77426864  0.88194066  0.31459079    -0.39400
C3038       C  0.76263073  0.87418857  0.31128050     0.21400
N3039       N  0.74325807  0.86776586  0.28721788    -0.32700
C3040       C  0.74623530  0.85939212  0.31363704    -0.10200
C3041       C  0.75830838  0.86315197  0.32940186    -0.29000
N3042       N  0.78607129  0.90059374  0.28671823    -0.45600
C3043       C  0.78323270  0.90811717  0.25850046    -0.04900
C3044       C  0.77089644  0.90463825  0.24427483    -0.22300
H3045       H  0.74736507  0.88852635  0.24123731     0.19500
H3046       H  0.78178054  0.87993878  0.33412658     0.18300
H3047       H  0.76342195  0.85833680  0.35064544     0.14600
H3048       H  0.76623710  0.90856822  0.22111156     0.14500
H3049       H  0.73505140  0.86746259  0.27047860     0.32600
H3050       H  0.79480336  0.90075809  0.30157829     0.35400
C3051       C  0.72054421  0.83759271  0.46558035     0.21000
C3052       C  0.71303432  0.83519837  0.49548107    -0.38900
C3053       C  0.71970224  0.83702157  0.52753121     0.20000
C3054       C  0.73282014  0.84097638  0.52972579     0.22600
C3055       C  0.74030996  0.84343440  0.49980039    -0.39400
C3056       C  0.73366356  0.84154732  0.46770515     0.21400
N3057       N  0.71670741  0.83589700  0.43213811    -0.32700
C3058       C  0.72747421  0.83871357  0.41250032    -0.10200
C3059       C  0.73822145  0.84235333  0.43401623    -0.29000
N3060       N  0.73698900  0.84152088  0.56316671    -0.45600
C3061       C  0.72646074  0.83785351  0.58265812    -0.04900
C3062       C  0.71548358  0.83501728  0.56106400    -0.22300
H3063       H  0.70282430  0.83187717  0.49389685     0.19500
H3064       H  0.75064959  0.84631290  0.50136255     0.18300
H3065       H  0.74818282  0.84489902  0.42636498     0.14600
H3066       H  0.70573700  0.83167735  0.56855364     0.14500
H3067       H  0.70740529  0.83257978  0.42351874     0.32600
H3068       H  0.74649836  0.84409528  0.57190886     0.35400
C3069       C  0.77298261  0.80738653  0.34359320     0.21000
C3070       C  0.78682845  0.80633509  0.34515489    -0.38900
C3071       C  0.79189235  0.79333964  0.34263750     0.20000
C3072       C  0.78381136  0.78219648  0.33940626     0.22600
C3073       C  0.76995665  0.78324638  0.33764100    -0.39400
C3074       C  0.76490056  0.79627070  0.33960365     0.21400
N3075       N  0.76577143  0.81865971  0.34353159    -0.32700
C3076       C  0.75303146  0.81468982  0.33883932    -0.10200
C3077       C  0.75209311  0.80079549  0.33646696    -0.29000
N3078       N  0.79111055  0.77101785  0.33665622    -0.45600
C3079       C  0.80391616  0.77513151  0.33761504    -0.04900
C3080       C  0.80478686  0.78897589  0.34138837    -0.22300
H3081       H  0.79320225  0.81501590  0.34727829     0.19500
H3082       H  0.76360617  0.77460230  0.33411305     0.18300
H3083       H  0.74325809  0.79481337  0.33229426     0.14600
H3084       H  0.81366326  0.79505126  0.34278193     0.14500
H3085       H  0.76935029  0.82844146  0.34503271     0.32600
H3086       H  0.78760057  0.76126933  0.33318815     0.35400
C3087       C  0.69073103  0.81703885  0.27338678     0.21000
C3088       C  0.67911546  0.80931199  0.27170069    -0.38900
C3089       C  0.67524165  0.80473310  0.23844877     0.20000
C3090       C  0.68240197  0.80762910  0.20903342     0.22600
C3091       C  0.69403139  0.81535804  0.21067955    -0.39400
C3092       C  0.69790690  0.81991033  0.24398206     0.21400
N3093       N  0.69717436  0.82133258  0.30227861    -0.32700
C3094       C  0.70858504  0.82702189  0.29133917    -0.10200
C3095       C  0.70937061  0.82622916  0.25504401    -0.29000
N3096       N  0.67790170  0.80040427  0.18165032    -0.45600
C3097       C  0.66793811  0.79265511  0.19363358    -0.04900
C3098       C  0.66586985  0.79529917  0.22896958    -0.22300
H3099       H  0.67391303  0.80640279  0.29486044     0.19500
H3100       H  0.70005445  0.81701120  0.18801472     0.18300
H3101       H  0.71763436  0.82914824  0.23910573     0.14600
H3102       H  0.65959327  0.78990152  0.24652926     0.14500
H3103       H  0.69432899  0.81963135  0.32783892     0.32600
H3104       H  0.68227767  0.79971091  0.15718885     0.35400
loop_ 
_geom_bond_atom_site_label_1 
_geom_bond_atom_site_label_2 
_geom_bond_distance 
_geom_bond_site_symmetry_2 
_ccdc_geom_bond_type 
C1            C2   1.532       .  S
C1            C7   1.542       .  S
C1            C5   1.527       .  S
C1         C3094   1.517       .  S
C2            H9   1.083       .  S
C2            C3   1.369       .  D
C3            C4   1.549       .  S
C3         C3040   1.497       .  S
C4            C8   1.551       .  S
C4            C6   1.541       .  S
C4           H10   1.106       .  S
C5           H11   1.086       .  S
C5            C6   1.361       .  D
C6         C3076   1.475       .  S
C7           H12   1.083       .  S
C7            C8   1.375       .  D
C8         C3058   1.499       .  S
C13          C14   1.528       .  S
C13          C19   1.536       .  S
C13          C17   1.532       .  S
C13        C3097   1.512       .  S
C14          H21   1.087       .  S
C14          C15   1.360       .  D
C15          C16   1.532       .  S
C15        C3022   1.467       .  S
C16          C20   1.542       .  S
C16          C18   1.546       .  S
C16          H22   1.106       .  S
C17          H23   1.085       .  S
C17          C18   1.371       .  D
C18        C3004   1.485       .  S
C19          H24   1.082       .  S
C19          C20   1.371       .  D
C20        C2986   1.487       .  S
C25          C26   1.537       .  S
C25          C31   1.534       .  S
C25          C29   1.531       .  S
C25        C2932   1.518       .  S
C26          H33   1.082       .  S
C26          C27   1.371       .  D
C27          C28   1.550       .  S
C27        C2971   1.496       .  S
C28          C32   1.547       .  S
C28          C30   1.538       .  S
C28          H34   1.108       .  S
C29          H35   1.086       .  S
C29          C30   1.363       .  D
C30        C3079   1.475       .  S
C31          H36   1.086       .  S
C31          C32   1.369       .  D
C32        C2950   1.491       .  S
C37          C38   1.525       .  S
C37          C43   1.545       .  S
C37          C41   1.529       .  S
C37        C2968   1.520       .  S
C38          H45   1.087       .  S
C38          C39   1.360       .  D
C39          C40   1.533       .  S
C39        C3025   1.468       .  S
C40          C44   1.547       .  S
C40          C42   1.548       .  S
C40          H46   1.107       .  S
C41          H47   1.084       .  S
C41          C42   1.369       .  D
C42        C2896   1.491       .  S
C43          H48   1.083       .  S
C43          C44   1.379       .  D
C44        C2917   1.497       .  S
C49          C50   1.528       .  S
C49          C55   1.540       .  S
C49          C53   1.541       .  S
C49        C2878   1.522       .  S
C50          H57   1.086       .  S
C50          C51   1.363       .  D
C51          C52   1.542       .  S
C51        C2860   1.483       .  S
C52          C56   1.549       .  S
C52          C54   1.545       .  S
C52          H58   1.108       .  S
C53          H59   1.085       .  S
C53          C54   1.369       .  D
C54        C2953   1.485       .  S
C55          H60   1.084       .  S
C55          C56   1.372       .  D
C56        C2842   1.499       .  S
C61          C62   1.532       .  S
C61          C67   1.545       .  S
C61          C65   1.527       .  S
C61        C2881   1.523       .  S
C62          H69   1.084       .  S
C62          C63   1.369       .  D
C63          C64   1.546       .  S
C63        C2809   1.489       .  S
C64          C68   1.547       .  S
C64          C66   1.538       .  S
C64          H70   1.107       .  S
C65          H71   1.087       .  S
C65          C66   1.362       .  D
C66        C2824   1.477       .  S
C67          H72   1.084       .  S
C67          C68   1.378       .  D
C68        C2914   1.497       .  S
C73          C74   1.534       .  S
C73          C79   1.532       .  S
C73          C77   1.531       .  S
C73        C2788   1.518       .  S
C74          H81   1.084       .  S
C74          C75   1.372       .  D
C75          C76   1.548       .  S
C75        C3007   1.487       .  S
C76          C80   1.545       .  S
C76          C78   1.538       .  S
C76          H82   1.106       .  S
C77          H83   1.086       .  S
C77          C78   1.365       .  D
C78        C2827   1.481       .  S
C79          H84   1.081       .  S
C79          C80   1.368       .  D
C80        C2770   1.491       .  S
C85          C86   1.537       .  S
C85          C91   1.532       .  S
C85          C89   1.533       .  S
C85        C2791   1.519       .  S
C86          H93   1.082       .  S
C86          C87   1.371       .  D
C87          C88   1.552       .  S
C87        C3061   1.499       .  S
C88          C92   1.553       .  S
C88          C90   1.544       .  S
C88          H94   1.106       .  S
C89          H95   1.086       .  S
C89          C90   1.365       .  D
C90        C2863   1.487       .  S
C91          H96   1.084       .  S
C91          C92   1.370       .  D
C92        C2752   1.497       .  S
O97         C100   1.265       .  A
O97        Cd102   2.489       .  S
C98         O107   1.266       .  A
C98         O103   1.265       .  A
C98        C2698   1.471       .  S
O99         C105   1.267       .  A
O99        Cd102   2.515       .  S
C100        O108   1.266       .  A
C100       C2935   1.476       .  S
C101        O106   1.267       .  A
C101        O104   1.264       .  A
C101       C2734   1.479       .  S
Cd102       O109   2.454       .  S
Cd102       O108   2.474       .  S
Cd102       O107   2.474       .  S
Cd102       O103   2.460       .  S
Cd102       O106   2.507       .  S
Cd102       O104   2.465       .  S
C105        O109   1.263       .  A
C105       C2716   1.476       .  S
O110        C113   1.265       .  A
O110       Cd115   2.471       .  S
C111        O120   1.265       .  A
C111        O116   1.265       .  A
C111       C2644   1.477       .  S
O112        C118   1.269       .  A
O112       Cd115   2.516       .  S
C113        O121   1.265       .  A
C113       C2662   1.472       .  S
C114        O119   1.266       .  A
C114        O117   1.264       .  A
C114       C2737   1.483       .  S
Cd115       O122   2.451       .  S
Cd115       O121   2.468       .  S
Cd115       O120   2.499       .  S
Cd115       O116   2.479       .  S
Cd115       O119   2.513       .  S
Cd115       O117   2.499       .  S
C118        O122   1.263       .  A
C118       C2680   1.476       .  S
O123        C126   1.265       .  A
O123       Cd128   2.481       .  S
C124        O133   1.266       .  A
C124        O129   1.266       .  A
C124       C2611   1.467       .  S
O125        C131   1.267       .  A
O125       Cd128   2.505       .  S
C126        O134   1.264       .  A
C126       C2590   1.470       .  S
C127        O132   1.266       .  A
C127        O130   1.263       .  A
C127       C2629   1.471       .  S
Cd128       O135   2.452       .  S
Cd128       O134   2.459       .  S
Cd128       O133   2.458       .  S
Cd128       O129   2.455       .  S
Cd128       O132   2.494       .  S
Cd128       O130   2.457       .  S
C131        O135   1.262       .  A
C131       C2683   1.474       .  S
O136        C139   1.267       .  A
O136       Cd141   2.480       .  S
C137        O146   1.265       .  A
C137        O142   1.264       .  A
C137       C2539   1.471       .  S
O138        C144   1.266       .  A
O138       Cd141   2.481       .  S
C139        O147   1.264       .  A
C139       C2554   1.468       .  S
C140        O145   1.264       .  A
C140        O143   1.262       .  A
C140       C2626   1.466       .  S
Cd141       O148   2.437       .  S
Cd141       O147   2.440       .  S
Cd141       O146   2.474       .  S
Cd141       O142   2.469       .  S
Cd141       O145   2.482       .  S
Cd141       O143   2.434       .  S
C144        O148   1.264       .  A
C144       C2575   1.467       .  S
O149        C152   1.264       .  A
O149       Cd154   2.483       .  S
C150        O159   1.267       .  A
C150        O155   1.263       .  A
C150       C2467   1.471       .  S
O151        C157   1.264       .  A
O151       Cd154   2.488       .  S
C152        O160   1.265       .  A
C152       C2485   1.468       .  S
C153        O158   1.263       .  A
C153        O156   1.264       .  A
C153       C2521   1.477       .  S
Cd154       O161   2.465       .  S
Cd154       O160   2.448       .  S
Cd154       O159   2.502       .  S
Cd154       O155   2.435       .  S
Cd154       O158   2.490       .  S
Cd154       O156   2.497       .  S
C157        O161   1.263       .  A
C157       C2500   1.470       .  S
O162        C165   1.265       .  A
O162       Cd167   2.454       .  S
C163        O172   1.264       .  A
C163        O168   1.266       .  A
C163       C2446   1.469       .  S
O164        C170   1.267       .  A
O164       Cd167   2.507       .  S
C165        O173   1.265       .  A
C165       C2428   1.470       .  S
C166        O171   1.264       .  A
C166        O169   1.264       .  A
C166       C2518   1.477       .  S
Cd167       O174   2.432       .  S
Cd167       O173   2.476       .  S
Cd167       O172   2.432       .  S
Cd167       O168   2.499       .  S
Cd167       O171   2.489       .  S
Cd167       O169   2.488       .  S
C170        O174   1.262       .  A
C170       C2572   1.470       .  S
O175        C178   1.265       .  A
O175       Cd180   2.483       .  S
C176        O185   1.265       .  A
C176        O181   1.265       .  A
C176       C2392   1.471       .  S
O177        C183   1.266       .  A
O177       Cd180   2.494       .  S
C178        O186   1.265       .  A
C178       C3043   1.480       .  S
C179        O184   1.268       .  A
C179        O182   1.261       .  A
C179       C2719   1.476       .  S
Cd180       O187   2.485       .  S
Cd180       O186   2.500       .  S
Cd180       O185   2.478       .  S
Cd180       O181   2.464       .  S
Cd180       O184   2.530       .  S
Cd180       O182   2.435       .  S
C183        O187   1.265       .  A
C183       C2410   1.478       .  S
O188        C191   1.265       .  A
O188       Cd193   2.479       .  S
C189        O198   1.263       .  A
C189        O194   1.266       .  A
C189       C2374   1.469       .  S
O190        C196   1.266       .  A
O190       Cd193   2.519       .  S
C191        O199   1.266       .  A
C191       C2359   1.475       .  S
C192        O197   1.265       .  A
C192        O195   1.265       .  A
C192       C2413   1.475       .  S
Cd193       O200   2.422       .  S
Cd193       O199   2.483       .  S
Cd193       O198   2.447       .  S
Cd193       O194   2.491       .  S
Cd193       O197   2.476       .  S
Cd193       O195   2.486       .  S
C196        O200   1.260       .  A
C196       C2503   1.469       .  S
O201        C204   1.267       .  A
O201       Cd206   2.490       .  S
C202        O211   1.265       .  A
C202        O207   1.265       .  A
C202       C2755   1.483       .  S
O203        C209   1.264       .  A
O203       Cd206   2.489       .  S
C204        O212   1.264       .  A
C204       C2395   1.474       .  S
C205        O210   1.266       .  A
C205        O208   1.263       .  A
C205       C2320   1.472       .  S
Cd206       O213   2.476       .  S
Cd206       O212   2.470       .  S
Cd206       O211   2.505       .  S
Cd206       O207   2.504       .  S
Cd206       O210   2.504       .  S
Cd206       O208   2.447       .  S
C209        O213   1.264       .  A
C209       C2338   1.475       .  S
O214        C217   1.265       .  A
O214       Cd219   2.468       .  S
C215        O224   1.267       .  A
C215        O220   1.264       .  A
C215       C2284   1.476       .  S
O216        C222   1.265       .  A
O216       Cd219   2.503       .  S
C217        O225   1.264       .  A
C217       C2377   1.466       .  S
C218        O223   1.263       .  A
C218        O221   1.263       .  A
C218       C2341   1.477       .  S
Cd219       O226   2.475       .  S
Cd219       O225   2.446       .  S
Cd219       O224   2.492       .  S
Cd219       O220   2.474       .  S
Cd219       O223   2.497       .  S
Cd219       O221   2.489       .  S
C222        O226   1.263       .  A
C222       C2302   1.475       .  S
O227        C230   1.268       .  A
O227       Cd232   2.492       .  S
C228        O237   1.265       .  A
C228        O233   1.265       .  A
C228       C2230   1.478       .  S
O229        C235   1.268       .  A
O229       Cd232   2.517       .  S
C230        O238   1.263       .  A
C230       C2608   1.468       .  S
C231        O236   1.265       .  A
C231        O234   1.264       .  A
C231       C2266   1.480       .  S
Cd232       O239   2.446       .  S
Cd232       O238   2.436       .  S
Cd232       O237   2.496       .  S
Cd232       O233   2.487       .  S
Cd232       O236   2.501       .  S
Cd232       O234   2.493       .  S
C235        O239   1.262       .  A
C235       C2248   1.475       .  S
O240        C243   1.263       .  A
O240       Cd245   2.453       .  S
C241        O250   1.265       .  A
C241        O246   1.264       .  A
C241       C2557   1.468       .  S
O242        C248   1.269       .  A
O242       Cd245   2.532       .  S
C243        O251   1.268       .  A
C243       C2197   1.473       .  S
C244        O249   1.266       .  A
C244        O247   1.264       .  A
C244       C2269   1.482       .  S
Cd245       O252   2.455       .  S
Cd245       O251   2.499       .  S
Cd245       O250   2.453       .  S
Cd245       O246   2.472       .  S
Cd245       O249   2.506       .  S
Cd245       O247   2.497       .  S
C248        O252   1.262       .  A
C248       C2215   1.478       .  S
O253        C256   1.264       .  A
O253       Cd258   2.502       .  S
C254        O263   1.263       .  A
C254        O259   1.265       .  A
C254       C2482   1.470       .  S
O255        C261   1.266       .  A
O255       Cd258   2.508       .  S
C256        O264   1.267       .  A
C256       C2161   1.481       .  S
C257        O262   1.266       .  A
C257        O260   1.266       .  A
C257       C2179   1.486       .  S
Cd258       O265   2.458       .  S
Cd258       O264   2.495       .  S
Cd258       O263   2.449       .  S
Cd258       O259   2.496       .  S
Cd258       O262   2.526       .  S
Cd258       O260   2.496       .  S
C261        O265   1.261       .  A
C261       C2305   1.473       .  S
O266        C269   1.265       .  A
O266       Cd271   2.466       .  S
C267        O276   1.266       .  A
C267        O272   1.264       .  A
C267       C2143   1.475       .  S
O268        C274   1.268       .  A
O268       Cd271   2.517       .  S
C269        O277   1.266       .  A
C269       C2449   1.467       .  S
C270        O275   1.267       .  A
C270        O273   1.264       .  A
C270       C2176   1.481       .  S
Cd271       O278   2.437       .  S
Cd271       O277   2.449       .  S
Cd271       O276   2.476       .  S
Cd271       O272   2.481       .  S
Cd271       O275   2.516       .  S
Cd271       O273   2.468       .  S
C274        O278   1.263       .  A
C274       C2212   1.474       .  S
O279        C282   1.267       .  A
O279       Cd284   2.492       .  S
C280        O289   1.265       .  A
C280        O285   1.266       .  A
C280       C2845   1.482       .  S
O281        C287   1.267       .  A
O281       Cd284   2.498       .  S
C282        O290   1.263       .  A
C282       C2701   1.472       .  S
C283        O288   1.264       .  A
C283        O286   1.264       .  A
C283       C2122   1.474       .  S
Cd284       O291   2.451       .  S
Cd284       O290   2.454       .  S
Cd284       O289   2.495       .  S
Cd284       O285   2.500       .  S
Cd284       O288   2.489       .  S
Cd284       O286   2.480       .  S
C287        O291   1.263       .  A
C287       C2323   1.472       .  S
O292        C295   1.265       .  A
O292       Cd297   2.498       .  S
C293        O302   1.264       .  A
C293        O298   1.266       .  A
C293       C2665   1.477       .  S
O294        C300   1.266       .  A
O294       Cd297   2.511       .  S
C295        O303   1.264       .  A
C295       C2104   1.477       .  S
C296        O301   1.264       .  A
C296        O299   1.264       .  A
C296       C2125   1.474       .  S
Cd297       O304   2.456       .  S
Cd297       O303   2.486       .  S
Cd297       O302   2.466       .  S
Cd297       O298   2.509       .  S
Cd297       O301   2.497       .  S
Cd297       O299   2.469       .  S
C300        O304   1.264       .  A
C300       C2251   1.475       .  S
C305        C306   1.531       .  S
C305        C311   1.537       .  S
C305        C309   1.533       .  S
C305       C2536   1.515       .  S
C306        H313   1.086       .  S
C306        C307   1.368       .  D
C307        C308   1.547       .  S
C307       C2050   1.486       .  S
C308        C312   1.552       .  S
C308        C310   1.539       .  S
C308        H314   1.109       .  S
C309        H315   1.086       .  S
C309        C310   1.361       .  D
C310       C2068   1.479       .  S
C311        H316   1.081       .  S
C311        C312   1.370       .  D
C312       C2086   1.492       .  S
C317        C318   1.529       .  S
C317        C323   1.530       .  S
C317        C321   1.540       .  S
C317       C2089   1.516       .  S
C318        H325   1.087       .  S
C318        C319   1.362       .  D
C319        C320   1.537       .  S
C319       C2032   1.476       .  S
C320        C324   1.548       .  S
C320        C322   1.548       .  S
C320        H326   1.107       .  S
C321        H327   1.083       .  S
C321        C322   1.376       .  D
C322       C2014   1.492       .  S
C323        H328   1.084       .  S
C323        C324   1.367       .  D
C324       C1999   1.492       .  S
C329        C330   1.531       .  S
C329        C335   1.540       .  S
C329        C333   1.541       .  S
C329       C1981   1.518       .  S
C330        H337   1.086       .  S
C330        C331   1.362       .  D
C331        C332   1.541       .  S
C331       C2071   1.483       .  S
C332        C336   1.542       .  S
C332        C334   1.543       .  S
C332        H338   1.107       .  S
C333        H339   1.081       .  S
C333        C334   1.371       .  D
C334       C2431   1.492       .  S
C335        H340   1.086       .  S
C335        C336   1.369       .  D
C336       C1960   1.484       .  S
C341        C342   1.541       .  S
C341        C347   1.533       .  S
C341        C345   1.528       .  S
C341       C1978   1.516       .  S
C342        H349   1.084       .  S
C342        C343   1.374       .  D
C343        C344   1.553       .  S
C343       C1942   1.495       .  S
C344        C348   1.546       .  S
C344        C346   1.538       .  S
C344        H350   1.108       .  S
C345        H351   1.087       .  S
C345        C346   1.359       .  D
C346       C2035   1.473       .  S
C347        H352   1.085       .  S
C347        C348   1.368       .  D
C348       C1924   1.489       .  S
C353        C354   1.531       .  S
C353        C359   1.533       .  S
C353        C357   1.528       .  S
C353       C2194   1.514       .  S
C354        H361   1.082       .  S
C354        C355   1.369       .  D
C355        C356   1.552       .  S
C355       C1906   1.488       .  S
C356        C360   1.544       .  S
C356        C358   1.540       .  S
C356        H362   1.108       .  S
C357        H363   1.085       .  S
C357        C358   1.364       .  D
C358       C1888   1.482       .  S
C359        H364   1.085       .  S
C359        C360   1.370       .  D
C360       C2053   1.484       .  S
C365        C366   1.539       .  S
C365        C371   1.527       .  S
C365        C369   1.525       .  S
C365       C1909   1.512       .  S
C366        H373   1.082       .  S
C366        C367   1.374       .  D
C367        C368   1.550       .  S
C367       C2017   1.492       .  S
C368        C372   1.551       .  S
C368        C370   1.534       .  S
C368        H374   1.108       .  S
C369        H375   1.087       .  S
C369        C370   1.360       .  D
C370       C1873   1.470       .  S
C371        H376   1.084       .  S
C371        C372   1.368       .  D
C372       C1852   1.489       .  S
C377        C378   1.535       .  S
C377        C383   1.533       .  S
C377        C381   1.529       .  S
C377       C2140   1.520       .  S
C378        H385   1.086       .  S
C378        C379   1.371       .  D
C379        C380   1.549       .  S
C379       C1963   1.488       .  S
C380        C384   1.552       .  S
C380        C382   1.543       .  S
C380        H386   1.108       .  S
C381        H387   1.086       .  S
C381        C382   1.366       .  D
C382       C1891   1.482       .  S
C383        H388   1.080       .  S
C383        C384   1.368       .  D
C384       C1834   1.497       .  S
C389        C390   1.536       .  S
C389        C395   1.548       .  S
C389        C393   1.531       .  S
C389       C1837   1.526       .  S
C390        H397   1.085       .  S
C390        C391   1.371       .  D
C391        C392   1.540       .  S
C391       C1816   1.492       .  S
C392        C396   1.547       .  S
C392        C394   1.531       .  S
C392        H398   1.106       .  S
C393        H399   1.087       .  S
C393        C394   1.360       .  D
C394       C1870   1.468       .  S
C395        H400   1.083       .  S
C395        C396   1.377       .  D
C396       C1945   1.496       .  S
C401        C402   1.536       .  S
C401        C407   1.536       .  S
C401        C405   1.532       .  S
C401       C1801   1.518       .  S
C402        H409   1.084       .  S
C402        C403   1.368       .  D
C403        C404   1.542       .  S
C403       C2647   1.488       .  S
C404        C408   1.546       .  S
C404        C406   1.539       .  S
C404        H410   1.108       .  S
C405        H411   1.086       .  S
C405        C406   1.363       .  D
C406       C1780   1.476       .  S
C407        H412   1.084       .  S
C407        C408   1.373       .  D
C408       C1762   1.490       .  S
C413        C414   1.533       .  S
C413        C419   1.536       .  S
C413        C417   1.529       .  S
C413       C1798   1.517       .  S
C414        H421   1.084       .  S
C414        C415   1.369       .  D
C415        C416   1.549       .  S
C415       C1708   1.489       .  S
C416        C420   1.551       .  S
C416        C418   1.537       .  S
C416        H422   1.107       .  S
C417        H423   1.086       .  S
C417        C418   1.364       .  D
C418       C1744   1.480       .  S
C419        H424   1.084       .  S
C419        C420   1.374       .  D
C420       C1726   1.496       .  S
C425        C426   1.542       .  S
C425        C431   1.527       .  S
C425        C429   1.528       .  S
C425       C1690   1.514       .  S
C426        H433   1.083       .  S
C426        C427   1.374       .  D
C427        C428   1.547       .  S
C427       C1675   1.491       .  S
C428        C432   1.552       .  S
C428        C430   1.534       .  S
C428        H434   1.107       .  S
C429        H435   1.087       .  S
C429        C430   1.361       .  D
C430       C1747   1.477       .  S
C431        H436   1.084       .  S
C431        C432   1.367       .  D
C432       C1654   1.488       .  S
C437        C438   1.534       .  S
C437        C443   1.531       .  S
C437        C441   1.533       .  S
C437       C2593   1.515       .  S
C438        H445   1.080       .  S
C438        C439   1.367       .  D
C439        C440   1.548       .  S
C439       C1693   1.488       .  S
C440        C444   1.545       .  S
C440        C442   1.541       .  S
C440        H446   1.108       .  S
C441        H447   1.086       .  S
C441        C442   1.365       .  D
C442       C1783   1.479       .  S
C443        H448   1.086       .  S
C443        C444   1.369       .  D
C444       C1636   1.485       .  S
C449        C450   1.534       .  S
C449        C455   1.526       .  S
C449        C453   1.534       .  S
C449       C1618   1.515       .  S
C450        H457   1.084       .  S
C450        C451   1.372       .  D
C451        C452   1.548       .  S
C451       C2107   1.490       .  S
C452        C456   1.541       .  S
C452        C454   1.546       .  S
C452        H458   1.106       .  S
C453        H459   1.084       .  S
C453        C454   1.372       .  D
C454       C1765   1.492       .  S
C455        H460   1.086       .  S
C455        C456   1.362       .  D
C456       C1600   1.479       .  S
C461        C462   1.536       .  S
C461        C467   1.530       .  S
C461        C465   1.527       .  S
C461       C1621   1.514       .  S
C462        H469   1.083       .  S
C462        C463   1.372       .  D
C463        C464   1.549       .  S
C463       C1729   1.491       .  S
C464        C468   1.553       .  S
C464        C466   1.540       .  S
C464        H470   1.107       .  S
C465        H471   1.086       .  S
C465        C466   1.362       .  D
C466       C1585   1.478       .  S
C467        H472   1.084       .  S
C467        C468   1.369       .  D
C468       C1564   1.494       .  S
C473        C474   1.526       .  S
C473        C479   1.530       .  S
C473        C477   1.536       .  S
C473       C1546   1.514       .  S
C474        H481   1.086       .  S
C474        C475   1.362       .  D
C475        C476   1.540       .  S
C475       C1582   1.476       .  S
C476        C480   1.550       .  S
C476        C478   1.546       .  S
C476        H482   1.108       .  S
C477        H483   1.084       .  S
C477        C478   1.372       .  D
C478       C1672   1.491       .  S
C479        H484   1.084       .  S
C479        C480   1.371       .  D
C480       C1531   1.489       .  S
C485        C486   1.530       .  S
C485        C491   1.537       .  S
C485        C489   1.541       .  S
C485       C1549   1.516       .  S
C486        H493   1.086       .  S
C486        C487   1.364       .  D
C487        C488   1.536       .  S
C487       C1603   1.480       .  S
C488        C492   1.543       .  S
C488        C490   1.542       .  S
C488        H494   1.107       .  S
C489        H495   1.085       .  S
C489        C490   1.369       .  D
C490       C1639   1.481       .  S
C491        H496   1.084       .  S
C491        C492   1.371       .  D
C492       C2233   1.492       .  S
O497        C500   1.267       .  A
O497       Cd502   2.511       .  S
C498        O507   1.265       .  A
C498        O503   1.264       .  A
C498       C1459   1.472       .  S
O499        C505   1.268       .  A
O499       Cd502   2.530       .  S
C500        O508   1.264       .  A
C500       C1474   1.477       .  S
C501        O506   1.264       .  A
C501        O504   1.262       .  A
C501       C1510   1.477       .  S
Cd502       O509   2.437       .  S
Cd502       O508   2.451       .  S
Cd502       O507   2.491       .  S
Cd502       O503   2.467       .  S
Cd502       O506   2.504       .  S
Cd502       O504   2.487       .  S
C505        O509   1.263       .  A
C505       C1492   1.476       .  S
O510        C513   1.265       .  A
O510       Cd515   2.478       .  S
C511        O520   1.264       .  A
C511        O516   1.266       .  A
C511       C1423   1.471       .  S
O512        C518   1.265       .  A
O512       Cd515   2.489       .  S
C513        O521   1.265       .  A
C513       C2899   1.478       .  S
C514        O519   1.264       .  A
C514        O517   1.266       .  A
C514       C1513   1.474       .  S
Cd515       O522   2.452       .  S
Cd515       O521   2.502       .  S
Cd515       O520   2.473       .  S
Cd515       O516   2.474       .  S
Cd515       O519   2.467       .  S
Cd515       O517   2.489       .  S
C518        O522   1.263       .  A
C518       C1438   1.469       .  S
O523        C526   1.266       .  A
O523       Cd528   2.483       .  S
C524        O533   1.264       .  A
C524        O529   1.265       .  A
C524       C1369   1.473       .  S
O525        C531   1.265       .  A
O525       Cd528   2.481       .  S
C526        O534   1.264       .  A
C526       C1657   1.471       .  S
C527        O532   1.262       .  A
C527        O530   1.265       .  A
C527       C1402   1.473       .  S
Cd528       O535   2.442       .  S
Cd528       O534   2.459       .  S
Cd528       O533   2.461       .  S
Cd528       O529   2.490       .  S
Cd528       O532   2.474       .  S
Cd528       O530   2.486       .  S
C531        O535   1.263       .  A
C531       C1384   1.466       .  S
O536        C539   1.266       .  A
O536       Cd541   2.494       .  S
C537        O546   1.264       .  A
C537        O542   1.265       .  A
C537       C2989   1.471       .  S
O538        C544   1.267       .  A
O538       Cd541   2.515       .  S
C539        O547   1.264       .  A
C539       C1348   1.471       .  S
C540        O545   1.265       .  A
C540        O543   1.264       .  A
C540       C1405   1.473       .  S
Cd541       O548   2.411       .  S
Cd541       O547   2.452       .  S
Cd541       O546   2.479       .  S
Cd541       O542   2.465       .  S
Cd541       O545   2.480       .  S
Cd541       O543   2.472       .  S
C544        O548   1.262       .  A
C544       C1441   1.469       .  S
O549        C552   1.265       .  A
O549       Cd554   2.493       .  S
C550        O559   1.264       .  A
C550        O555   1.266       .  A
C550       C1294   1.473       .  S
O551        C557   1.266       .  A
O551       Cd554   2.515       .  S
C552        O560   1.264       .  A
C552       C1927   1.477       .  S
C553        O558   1.264       .  A
C553        O556   1.262       .  A
C553       C1330   1.479       .  S
Cd554       O561   2.466       .  S
Cd554       O560   2.487       .  S
Cd554       O559   2.460       .  S
Cd554       O555   2.500       .  S
Cd554       O558   2.517       .  S
Cd554       O556   2.484       .  S
C557        O561   1.265       .  A
C557       C1312   1.477       .  S
O562        C565   1.265       .  A
O562       Cd567   2.493       .  S
C563        O572   1.265       .  A
C563        O568   1.266       .  A
C563       C1276   1.476       .  S
O564        C570   1.263       .  A
O564       Cd567   2.498       .  S
C565        O573   1.264       .  A
C565       C1711   1.476       .  S
C566        O571   1.266       .  A
C566        O569   1.264       .  A
C566       C1387   1.471       .  S
Cd567       O574   2.499       .  S
Cd567       O573   2.487       .  S
Cd567       O572   2.471       .  S
Cd567       O568   2.497       .  S
Cd567       O571   2.498       .  S
Cd567       O569   2.453       .  S
C570        O574   1.263       .  A
C570       C1333   1.478       .  S
O575        C578   1.265       .  A
O575       Cd580   2.482       .  S
C576        O585   1.265       .  A
C576        O581   1.266       .  A
C576       C1240   1.474       .  S
O577        C583   1.265       .  A
O577       Cd580   2.483       .  S
C578        O586   1.264       .  A
C578       C1222   1.475       .  S
C579        O584   1.263       .  A
C579        O582   1.264       .  A
C579       C1261   1.476       .  S
Cd580       O587   2.477       .  S
Cd580       O586   2.490       .  S
Cd580       O585   2.461       .  S
Cd580       O581   2.494       .  S
Cd580       O584   2.489       .  S
Cd580       O582   2.492       .  S
C583        O587   1.265       .  A
C583       C1495   1.474       .  S
O588        C591   1.266       .  A
O588       Cd593   2.487       .  S
C589        O598   1.265       .  A
C589        O594   1.266       .  A
C589       C1996   1.477       .  S
O590        C596   1.265       .  A
O590       Cd593   2.497       .  S
C591        O599   1.265       .  A
C591       C1204   1.472       .  S
C592        O597   1.263       .  A
C592        O595   1.264       .  A
C592       C1258   1.478       .  S
Cd593       O600   2.450       .  S
Cd593       O599   2.464       .  S
Cd593       O598   2.485       .  S
Cd593       O594   2.484       .  S
Cd593       O597   2.499       .  S
Cd593       O595   2.498       .  S
C596        O600   1.262       .  A
C596       C1315   1.470       .  S
O601        C604   1.267       .  A
O601       Cd606   2.477       .  S
C602        O611   1.264       .  A
C602        O607   1.266       .  A
C602       C1855   1.475       .  S
O603        C609   1.265       .  A
O603       Cd606   2.494       .  S
C604        O612   1.264       .  A
C604       C1207   1.468       .  S
C605        O610   1.267       .  A
C605        O608   1.263       .  A
C605       C1168   1.472       .  S
Cd606       O613   2.467       .  S
Cd606       O612   2.443       .  S
Cd606       O611   2.469       .  S
Cd606       O607   2.494       .  S
Cd606       O610   2.496       .  S
Cd606       O608   2.439       .  S
C609        O613   1.264       .  A
C609       C1186   1.473       .  S
O614        C617   1.264       .  A
O614       Cd619   2.457       .  S
C615        O624   1.265       .  A
C615        O620   1.266       .  A
C615       C1243   1.473       .  S
O616        C622   1.265       .  A
O616       Cd619   2.488       .  S
C617        O625   1.265       .  A
C617       C1132   1.471       .  S
C618        O623   1.265       .  A
C618        O621   1.263       .  A
C618       C1153   1.474       .  S
Cd619       O626   2.462       .  S
Cd619       O625   2.488       .  S
Cd619       O624   2.455       .  S
Cd619       O620   2.490       .  S
Cd619       O623   2.504       .  S
Cd619       O621   2.461       .  S
C622        O626   1.264       .  A
C622       C1189   1.472       .  S
O627        C630   1.265       .  A
O627       Cd632   2.477       .  S
C628        O637   1.265       .  A
C628        O633   1.267       .  A
C628       C1279   1.474       .  S
O629        C635   1.267       .  A
O629       Cd632   2.510       .  S
C630        O638   1.265       .  A
C630       C1567   1.475       .  S
C631        O636   1.266       .  A
C631        O634   1.263       .  A
C631       C1114   1.472       .  S
Cd632       O639   2.447       .  S
Cd632       O638   2.487       .  S
Cd632       O637   2.457       .  S
Cd632       O633   2.490       .  S
Cd632       O636   2.496       .  S
Cd632       O634   2.453       .  S
C635        O639   1.263       .  A
C635       C1096   1.473       .  S
O640        C643   1.267       .  A
O640       Cd645   2.479       .  S
C641        O650   1.264       .  A
C641        O646   1.266       .  A
C641       C1819   1.474       .  S
O642        C648   1.267       .  A
O642       Cd645   2.515       .  S
C643        O651   1.265       .  A
C643       C1297   1.471       .  S
C644        O649   1.265       .  A
C644        O647   1.264       .  A
C644       C1117   1.473       .  S
Cd645       O652   2.447       .  S
Cd645       O651   2.459       .  S
Cd645       O650   2.480       .  S
Cd645       O646   2.473       .  S
Cd645       O649   2.470       .  S
Cd645       O647   2.494       .  S
C648        O652   1.262       .  A
C648       C1171   1.474       .  S
O653        C656   1.265       .  A
O653       Cd658   2.494       .  S
C654        O663   1.264       .  A
C654        O659   1.266       .  A
C654       C1420   1.470       .  S
O655        C661   1.265       .  A
O655       Cd658   2.505       .  S
C656        O664   1.264       .  A
C656       C2806   1.477       .  S
C657        O662   1.267       .  A
C657        O660   1.263       .  A
C657       C1060   1.472       .  S
Cd658       O665   2.484       .  S
Cd658       O664   2.486       .  S
Cd658       O663   2.457       .  S
Cd658       O659   2.476       .  S
Cd658       O662   2.487       .  S
Cd658       O660   2.456       .  S
C661        O665   1.264       .  A
C661       C1078   1.478       .  S
O666        C669   1.265       .  A
O666       Cd671   2.476       .  S
C667        O676   1.265       .  A
C667        O672   1.266       .  A
C667       C1477   1.481       .  S
O668        C674   1.267       .  A
O668       Cd671   2.519       .  S
C669        O677   1.265       .  A
C669       C1045   1.476       .  S
C670        O675   1.265       .  A
C670        O673   1.264       .  A
C670       C1081   1.476       .  S
Cd671       O678   2.421       .  S
Cd671       O677   2.502       .  S
Cd671       O676   2.490       .  S
Cd671       O672   2.501       .  S
Cd671       O675   2.497       .  S
Cd671       O673   2.472       .  S
C674        O678   1.263       .  A
C674       C1150   1.472       .  S
O679        C682   1.265       .  A
O679       Cd684   2.464       .  S
C680        O689   1.265       .  A
C680        O685   1.265       .  A
C680       C1351   1.470       .  S
O681        C687   1.266       .  A
O681       Cd684   2.501       .  S
C682        O690   1.265       .  A
C682       C2773   1.472       .  S
C683        O688   1.264       .  A
C683        O686   1.265       .  A
C683       C1024   1.480       .  S
Cd684       O691   2.452       .  S
Cd684       O690   2.481       .  S
Cd684       O689   2.459       .  S
Cd684       O685   2.478       .  S
Cd684       O688   2.503       .  S
Cd684       O686   2.494       .  S
C687        O691   1.262       .  A
C687       C1063   1.472       .  S
O692        C695   1.266       .  A
O692       Cd697   2.497       .  S
C693        O702   1.263       .  A
C693        O698   1.266       .  A
C693       C1528   1.472       .  S
O694        C700   1.266       .  A
O694       Cd697   2.489       .  S
C695        O703   1.265       .  A
C695       C1366   1.475       .  S
C696        O701   1.265       .  A
C696        O699   1.265       .  A
C696       C1027   1.478       .  S
Cd697       O704   2.452       .  S
Cd697       O703   2.467       .  S
Cd697       O702   2.470       .  S
Cd697       O698   2.486       .  S
Cd697       O701   2.497       .  S
Cd697       O699   2.478       .  S
C700        O704   1.263       .  A
C700       C1099   1.470       .  S
C705        C706   1.538       .  S
C705        C711   1.537       .  S
C705        C709   1.534       .  S
C705        C970   1.522       .  S
C706        H713   1.081       .  S
C706        C707   1.369       .  D
C707        C708   1.546       .  S
C707       C2356   1.492       .  S
C708        C712   1.543       .  S
C708        C710   1.537       .  S
C708        H714   1.104       .  S
C709        H715   1.086       .  S
C709        C710   1.363       .  D
C710        C988   1.475       .  S
C711        H716   1.085       .  S
C711        C712   1.373       .  D
C712       C1009   1.495       .  S
C717        C718   1.546       .  S
C717        C723   1.530       .  S
C717        C721   1.547       .  S
C717       C1006   1.528       .  S
C718        H725   1.081       .  S
C718        C719   1.370       .  D
C719        C720   1.539       .  S
C719       C1225   1.491       .  S
C720        C724   1.530       .  S
C720        C722   1.540       .  S
C720        H726   1.108       .  S
C721        H727   1.086       .  S
C721        C722   1.374       .  D
C722        C937   1.486       .  S
C723        H728   1.087       .  S
C723        C724   1.360       .  D
C724        C952   1.470       .  S
C729        C730   1.529       .  S
C729        C735   1.531       .  S
C729        C733   1.538       .  S
C729        C919   1.514       .  S
C730        H737   1.087       .  S
C730        C731   1.362       .  D
C731        C732   1.534       .  S
C731        C955   1.471       .  S
C732        C736   1.546       .  S
C732        C734   1.549       .  S
C732        H738   1.105       .  S
C733        H739   1.084       .  S
C733        C734   1.374       .  D
C734        C901   1.493       .  S
C735        H740   1.083       .  S
C735        C736   1.366       .  D
C736       C1456   1.489       .  S
C741        C742   1.534       .  S
C741        C747   1.539       .  S
C741        C745   1.540       .  S
C741        C916   1.511       .  S
C742        H749   1.086       .  S
C742        C743   1.362       .  D
C743        C744   1.536       .  S
C743        C991   1.480       .  S
C744        C748   1.539       .  S
C744        C746   1.541       .  S
C744        H750   1.101       .  S
C745        H751   1.084       .  S
C745        C746   1.369       .  D
C746        C880   1.486       .  S
C747        H752   1.085       .  S
C747        C748   1.369       .  D
C748       C2464   1.488       .  S
C753        C754   1.534       .  S
C753        C759   1.536       .  S
C753        C757   1.534       .  S
C753       C2287   1.518       .  S
C754        H761   1.084       .  S
C754        C755   1.365       .  D
C755        C756   1.546       .  S
C755        C973   1.493       .  S
C756        C760   1.551       .  S
C756        C758   1.537       .  S
C756        H762   1.109       .  S
C757        H763   1.086       .  S
C757        C758   1.365       .  D
C758        C844   1.477       .  S
C759        H764   1.084       .  S
C759        C760   1.373       .  D
C760        C865   1.489       .  S
C765        C766   1.531       .  S
C765        C771   1.532       .  S
C765        C769   1.538       .  S
C765       C1135   1.514       .  S
C766        H773   1.086       .  S
C766        C767   1.364       .  D
C767        C768   1.544       .  S
C767        C826   1.480       .  S
C768        C772   1.550       .  S
C768        C770   1.543       .  S
C768        H774   1.110       .  S
C769        H775   1.084       .  S
C769        C770   1.368       .  D
C770        C862   1.483       .  S
C771        H776   1.086       .  S
C771        C772   1.367       .  D
C772        C934   1.489       .  S
C777        C778   1.537       .  S
C777        C783   1.536       .  S
C777        C781   1.535       .  S
C777        C811   1.517       .  S
C778        H785   1.084       .  S
C778        C779   1.371       .  D
C779        C780   1.544       .  S
C779        C898   1.489       .  S
C780        C784   1.544       .  S
C780        C782   1.538       .  S
C780        H786   1.106       .  S
C781        H787   1.086       .  S
C781        C782   1.362       .  D
C782        C829   1.480       .  S
C783        H788   1.080       .  S
C783        C784   1.368       .  D
C784       C1042   1.490       .  S
C789        C790   1.531       .  S
C789        C795   1.535       .  S
C789        C793   1.531       .  S
C789        C883   1.509       .  S
C790        H797   1.084       .  S
C790        C791   1.368       .  D
C791        C792   1.546       .  S
C791       C2158   1.496       .  S
C792        C796   1.550       .  S
C792        C794   1.540       .  S
C792        H798   1.105       .  S
C793        H799   1.086       .  S
C793        C794   1.362       .  D
C794        C847   1.476       .  S
C795        H800   1.083       .  S
C795        C796   1.372       .  D
C796        C808   1.488       .  S
C801        C806   1.383       .  A
C801        C802   1.402       .  A
C801        N807   1.343       .  A
C802        C803   1.402       .  A
C802        H813   1.082       .  S
C803        C812   1.375       .  A
C803        C804   1.383       .  A
C804        C805   1.406       .  A
C804        N810   1.345       .  A
C805        C806   1.405       .  A
C805        H814   1.082       .  S
C806        C809   1.378       .  A
N807        C808   1.357       .  A
N807        H817   1.043       .  S
C808        C809   1.401       .  A
C809        H815   1.082       .  S
N810        C811   1.361       .  A
N810        H818   1.043       .  S
C811        C812   1.396       .  A
C812        H816   1.082       .  S
C819        C824   1.384       .  A
C819        C820   1.403       .  A
C819        N825   1.341       .  A
C820        C821   1.401       .  A
C820        H831   1.082       .  S
C821        C830   1.378       .  A
C821        C822   1.384       .  A
C822        C823   1.406       .  A
C822        N828   1.344       .  A
C823        C824   1.404       .  A
C823        H832   1.082       .  S
C824        C827   1.382       .  A
N825        C826   1.357       .  A
N825        H835   1.044       .  S
C826        C827   1.396       .  A
C827        H833   1.082       .  S
N828        C829   1.358       .  A
N828        H836   1.044       .  S
C829        C830   1.394       .  A
C830        H834   1.082       .  S
C837        C842   1.384       .  A
C837        C838   1.402       .  A
C837        N843   1.341       .  A
C838        C839   1.400       .  A
C838        H849   1.082       .  S
C839        C848   1.377       .  A
C839        C840   1.384       .  A
C840        C841   1.404       .  A
C840        N846   1.342       .  A
C841        C842   1.403       .  A
C841        H850   1.082       .  S
C842        C845   1.378       .  A
N843        C844   1.355       .  A
N843        H853   1.044       .  S
C844        C845   1.395       .  A
C845        H851   1.080       .  S
N846        C847   1.357       .  A
N846        H854   1.044       .  S
C847        C848   1.393       .  A
C848        H852   1.082       .  S
C855        C860   1.384       .  A
C855        C856   1.406       .  A
C855        N861   1.348       .  A
C856        C857   1.407       .  A
C856        H867   1.082       .  S
C857        C866   1.380       .  A
C857        C858   1.384       .  A
C858        C859   1.405       .  A
C858        N864   1.347       .  A
C859        C860   1.405       .  A
C859        H868   1.082       .  S
C860        C863   1.377       .  A
N861        C862   1.356       .  A
N861        H871   1.045       .  S
C862        C863   1.397       .  A
C863        H869   1.082       .  S
N864        C865   1.357       .  A
N864        H872   1.045       .  S
C865        C866   1.400       .  A
C866        H870   1.082       .  S
C873        C878   1.382       .  A
C873        C874   1.408       .  A
C873        N879   1.346       .  A
C874        C875   1.407       .  A
C874        H885   1.082       .  S
C875        C884   1.383       .  A
C875        C876   1.383       .  A
C876        C877   1.398       .  A
C876        N882   1.338       .  A
C877        C878   1.397       .  A
C877        H886   1.083       .  S
C878        C881   1.370       .  A
N879        C880   1.360       .  A
N879        H889   1.044       .  S
C880        C881   1.396       .  A
C881        H887   1.080       .  S
N882        C883   1.354       .  A
N882        H890   1.045       .  S
C883        C884   1.401       .  A
C884        H888   1.081       .  S
C891        C896   1.382       .  A
C891        C892   1.406       .  A
C891        N897   1.345       .  A
C892        C893   1.405   1_556  A
C892        H903   1.082       .  S
C893        C902   1.380       .  A
C893        C894   1.382       .  A
C894        C895   1.405   1_554  A
C894        N900   1.344       .  A
C895        C896   1.404       .  A
C895        H904   1.082       .  S
C896        C899   1.379       .  A
N897        C898   1.359       .  A
N897        H907   1.044       .  S
C898        C899   1.399       .  A
C899        H905   1.081       .  S
N900        C901   1.359       .  A
N900        H908   1.043       .  S
C901        C902   1.401       .  A
C902        H906   1.082       .  S
C909        C914   1.383       .  A
C909        C910   1.404       .  A
C909        N915   1.344       .  A
C910        C911   1.404       .  A
C910        H921   1.082       .  S
C911        C920   1.377       .  A
C911        C912   1.383       .  A
C912        C913   1.403       .  A
C912        N918   1.344       .  A
C913        C914   1.403       .  A
C913        H922   1.082       .  S
C914        C917   1.376       .  A
N915        C916   1.359       .  A
N915        H925   1.044       .  S
C916        C917   1.398       .  A
C917        H923   1.082       .  S
N918        C919   1.357       .  A
N918        H926   1.044       .  S
C919        C920   1.401       .  A
C920        H924   1.082       .  S
C927        C932   1.383       .  A
C927        C928   1.404   1_556  A
C927        N933   1.343       .  A
C928        C929   1.403       .  A
C928        H939   1.083       .  S
C929        C938   1.378       .  A
C929        C930   1.384       .  A
C930        C931   1.410       .  A
C930        N936   1.349       .  A
C931        C932   1.409   1_554  A
C931        H940   1.082       .  S
C932        C935   1.387       .  A
N933        C934   1.358       .  A
N933        H943   1.044       .  S
C934        C935   1.398       .  A
C935        H941   1.082       .  S
N936        C937   1.358       .  A
N936        H944   1.044       .  S
C937        C938   1.396       .  A
C938        H942   1.082       .  S
C945        C950   1.385       .  A
C945        C946   1.408       .  A
C945        N951   1.347       .  A
C946        C947   1.407       .  A
C946        H957   1.082       .  S
C947        C956   1.384       .  A
C947        C948   1.386       .  A
C948        C949   1.396       .  A
C948        N954   1.338       .  A
C949        C950   1.395       .  A
C949        H958   1.083       .  S
C950        C953   1.369       .  A
N951        C952   1.356       .  A
N951        H961   1.045       .  S
C952        C953   1.390       .  A
C953        H959   1.083       .  S
N954        C955   1.352       .  A
N954        H962   1.045       .  S
C955        C956   1.396       .  A
C956        H960   1.082       .  S
C963        C968   1.382       .  A
C963        C964   1.409       .  A
C963        N969   1.346       .  A
C964        C965   1.408       .  A
C964        H975   1.082       .  S
C965        C974   1.384       .  A
C965        C966   1.382       .  A
C966        C967   1.404       .  A
C966        N972   1.342       .  A
C967        C968   1.402       .  A
C967        H976   1.082       .  S
C968        C971   1.378       .  A
N969        C970   1.360       .  A
N969        H979   1.045       .  S
C970        C971   1.400       .  A
C971        H977   1.080       .  S
N972        C973   1.359       .  A
N972        H980   1.044       .  S
C973        C974   1.400       .  A
C974        H978   1.080       .  S
C981        C986   1.385       .  A
C981        C982   1.401       .  A
C981        N987   1.341       .  A
C982        C983   1.400       .  A
C982        H993   1.082       .  S
C983        C992   1.374       .  A
C983        C984   1.383       .  A
C984        C985   1.404       .  A
C984        N990   1.343       .  A
C985        C986   1.403       .  A
C985        H994   1.082       .  S
C986        C989   1.379       .  A
N987        C988   1.355       .  A
N987        H997   1.045       .  S
C988        C989   1.395       .  A
C989        H995   1.082       .  S
N990        C991   1.358       .  A
N990        H998   1.044       .  S
C991        C992   1.395       .  A
C992        H996   1.082       .  S
C999       C1004   1.382       .  A
C999       C1000   1.405       .  A
C999       N1005   1.345       .  A
C1000      C1001   1.404       .  A
C1000      H1011   1.082       .  S
C1001      C1010   1.379       .  A
C1001      C1002   1.381       .  A
C1002      C1003   1.409       .  A
C1002      N1008   1.347       .  A
C1003      C1004   1.409       .  A
C1003      H1012   1.082       .  S
C1004      C1007   1.384       .  A
N1005      C1006   1.361       .  A
N1005      H1015   1.042       .  S
C1006      C1007   1.403       .  A
C1007      H1013   1.082       .  S
N1008      C1009   1.361       .  A
N1008      H1016   1.043       .  S
C1009      C1010   1.399       .  A
C1010      H1014   1.081       .  S
C1017      C1022   1.384       .  A
C1017      C1018   1.408       .  A
C1017      N1023   1.348       .  A
C1018      C1019   1.407       .  A
C1018      H1029   1.082       .  S
C1019      C1028   1.384       .  A
C1019      C1020   1.384       .  A
C1020      C1021   1.405       .  A
C1020      N1026   1.345       .  A
C1021      C1022   1.404       .  A
C1021      H1030   1.082       .  S
C1022      C1025   1.381       .  A
N1023      C1024   1.358       .  A
N1023      H1033   1.045       .  S
C1024      C1025   1.396       .  A
C1025      H1031   1.082       .  S
N1026      C1027   1.356       .  A
N1026      H1034   1.045       .  S
C1027      C1028   1.398       .  A
C1028      H1032   1.082       .  S
C1035      C1040   1.383       .  A
C1035      C1036   1.401       .  A
C1035      N1041   1.341       .  A
C1036      C1037   1.400       .  A
C1036      H1047   1.082       .  S
C1037      C1046   1.377       .  A
C1037      C1038   1.384       .  A
C1038      C1039   1.409       .  A
C1038      N1044   1.347       .  A
C1039      C1040   1.408       .  A
C1039      H1048   1.082       .  S
C1040      C1043   1.383       .  A
N1041      C1042   1.358       .  A
N1041      H1051   1.043       .  S
C1042      C1043   1.401       .  A
C1043      H1049   1.081       .  S
N1044      C1045   1.358       .  A
N1044      H1052   1.045       .  S
C1045      C1046   1.394       .  A
C1046      H1050   1.082       .  S
C1053      C1058   1.385       .  A
C1053      C1054   1.403       .  A
C1053      N1059   1.343       .  A
C1054      C1055   1.402       .  A
C1054      H1065   1.082       .  S
C1055      C1064   1.376       .  A
C1055      C1056   1.385       .  A
C1056      C1057   1.405       .  A
C1056      N1062   1.346       .  A
C1057      C1058   1.405       .  A
C1057      H1066   1.082       .  S
C1058      C1061   1.381       .  A
N1059      C1060   1.356       .  A
N1059      H1069   1.045       .  S
C1060      C1061   1.396       .  A
C1061      H1067   1.082       .  S
N1062      C1063   1.356       .  A
N1062      H1070   1.045       .  S
C1063      C1064   1.395       .  A
C1064      H1068   1.082       .  S
C1071      C1076   1.384       .  A
C1071      C1072   1.404       .  A
C1071      N1077   1.344       .  A
C1072      C1073   1.402       .  A
C1072      H1083   1.082       .  S
C1073      C1082   1.378       .  A
C1073      C1074   1.384       .  A
C1074      C1075   1.408       .  A
C1074      N1080   1.347       .  A
C1075      C1076   1.408       .  A
C1075      H1084   1.082       .  S
C1076      C1079   1.384       .  A
N1077      C1078   1.356       .  A
N1077      H1087   1.045       .  S
C1078      C1079   1.399       .  A
C1079      H1085   1.082       .  S
N1080      C1081   1.358       .  A
N1080      H1088   1.045       .  S
C1081      C1082   1.395       .  A
C1082      H1086   1.082       .  S
C1089      C1094   1.385       .  A
C1089      C1090   1.407       .  A
C1089      N1095   1.347       .  A
C1090      C1091   1.406       .  A
C1090      H1101   1.082       .  S
C1091      C1100   1.382       .  A
C1091      C1092   1.385       .  A
C1092      C1093   1.401       .  A
C1092      N1098   1.342       .  A
C1093      C1094   1.400       .  A
C1093      H1102   1.082       .  S
C1094      C1097   1.375       .  A
N1095      C1096   1.357       .  A
N1095      H1105   1.045       .  S
C1096      C1097   1.394       .  A
C1097      H1103   1.083       .  S
N1098      C1099   1.354       .  A
N1098      H1106   1.045       .  S
C1099      C1100   1.397       .  A
C1100      H1104   1.082       .  S
C1107      C1112   1.385       .  A
C1107      C1108   1.403       .  A
C1107      N1113   1.346       .  A
C1108      C1109   1.403       .  A
C1108      H1119   1.082       .  S
C1109      C1118   1.377       .  A
C1109      C1110   1.385       .  A
C1110      C1111   1.404       .  A
C1110      N1116   1.346       .  A
C1111      C1112   1.404       .  A
C1111      H1120   1.082       .  S
C1112      C1115   1.377       .  A
N1113      C1114   1.356       .  A
N1113      H1123   1.045       .  S
C1114      C1115   1.395       .  A
C1115      H1121   1.082       .  S
N1116      C1117   1.357       .  A
N1116      H1124   1.045       .  S
C1117      C1118   1.394       .  A
C1118      H1122   1.082       .  S
C1125      C1130   1.385       .  A
C1125      C1126   1.404       .  A
C1125      N1131   1.345       .  A
C1126      C1127   1.403       .  A
C1126      H1137   1.082       .  S
C1127      C1136   1.376       .  A
C1127      C1128   1.383       .  A
C1128      C1129   1.403       .  A
C1128      N1134   1.344       .  A
C1129      C1130   1.403       .  A
C1129      H1138   1.082       .  S
C1130      C1133   1.376       .  A
N1131      C1132   1.356       .  A
N1131      H1141   1.045       .  S
C1132      C1133   1.394       .  A
C1133      H1139   1.082       .  S
N1134      C1135   1.359       .  A
N1134      H1142   1.043       .  S
C1135      C1136   1.397       .  A
C1136      H1140   1.082       .  S
C1143      C1148   1.384       .  A
C1143      C1144   1.409       .  A
C1143      N1149   1.350       .  A
C1144      C1145   1.409       .  A
C1144      H1155   1.082       .  S
C1145      C1154   1.384       .  A
C1145      C1146   1.385       .  A
C1146      C1147   1.399       .  A
C1146      N1152   1.341       .  A
C1147      C1148   1.398       .  A
C1147      H1156   1.083       .  S
C1148      C1151   1.370       .  A
N1149      C1150   1.359       .  A
N1149      H1159   1.045       .  S
C1150      C1151   1.391       .  A
C1151      H1157   1.083       .  S
N1152      C1153   1.354       .  A
N1152      H1160   1.045       .  S
C1153      C1154   1.399       .  A
C1154      H1158   1.082       .  S
C1161      C1166   1.384       .  A
C1161      C1162   1.409       .  A
C1161      N1167   1.348       .  A
C1162      C1163   1.408       .  A
C1162      H1173   1.082       .  S
C1163      C1172   1.386       .  A
C1163      C1164   1.384       .  A
C1164      C1165   1.401       .  A
C1164      N1170   1.341       .  A
C1165      C1166   1.399       .  A
C1165      H1174   1.082       .  S
C1166      C1169   1.374       .  A
N1167      C1168   1.358       .  A
N1167      H1177   1.045       .  S
C1168      C1169   1.393       .  A
C1169      H1175   1.083       .  S
N1170      C1171   1.354       .  A
N1170      H1178   1.045       .  S
C1171      C1172   1.399       .  A
C1172      H1176   1.082       .  S
C1179      C1184   1.385       .  A
C1179      C1180   1.401       .  A
C1179      N1185   1.342       .  A
C1180      C1181   1.400       .  A
C1180      H1191   1.082       .  S
C1181      C1190   1.376       .  A
C1181      C1182   1.384       .  A
C1182      C1183   1.407       .  A
C1182      N1188   1.346       .  A
C1183      C1184   1.406       .  A
C1183      H1192   1.082       .  S
C1184      C1187   1.383       .  A
N1185      C1186   1.354       .  A
N1185      H1195   1.045       .  S
C1186      C1187   1.398       .  A
C1187      H1193   1.082       .  S
N1188      C1189   1.357       .  A
N1188      H1196   1.045       .  S
C1189      C1190   1.393       .  A
C1190      H1194   1.082       .  S
C1197      C1202   1.385       .  A
C1197      C1198   1.405       .  A
C1197      N1203   1.345       .  A
C1198      C1199   1.404       .  A
C1198      H1209   1.082       .  S
C1199      C1208   1.380       .  A
C1199      C1200   1.385       .  A
C1200      C1201   1.402       .  A
C1200      N1206   1.342       .  A
C1201      C1202   1.401       .  A
C1201      H1210   1.082       .  S
C1202      C1205   1.377       .  A
N1203      C1204   1.356       .  A
N1203      H1213   1.045       .  S
C1204      C1205   1.395       .  A
C1205      H1211   1.082       .  S
N1206      C1207   1.355       .  A
N1206      H1214   1.045       .  S
C1207      C1208   1.395       .  A
C1208      H1212   1.082       .  S
C1215      C1220   1.384       .  A
C1215      C1216   1.406       .  A
C1215      N1221   1.346       .  A
C1216      C1217   1.405       .  A
C1216      H1227   1.082       .  S
C1217      C1226   1.379       .  A
C1217      C1218   1.382       .  A
C1218      C1219   1.405       .  A
C1218      N1224   1.345       .  A
C1219      C1220   1.404       .  A
C1219      H1228   1.082       .  S
C1220      C1223   1.379       .  A
N1221      C1222   1.357       .  A
N1221      H1231   1.045       .  S
C1222      C1223   1.395       .  A
C1223      H1229   1.082       .  S
N1224      C1225   1.359       .  A
N1224      H1232   1.044       .  S
C1225      C1226   1.399       .  A
C1226      H1230   1.081       .  S
C1233      C1238   1.384       .  A
C1233      C1234   1.407       .  A
C1233      N1239   1.347       .  A
C1234      C1235   1.407       .  A
C1234      H1245   1.082       .  S
C1235      C1244   1.383       .  A
C1235      C1236   1.385       .  A
C1236      C1237   1.401       .  A
C1236      N1242   1.342       .  A
C1237      C1238   1.400       .  A
C1237      H1246   1.082       .  S
C1238      C1241   1.376       .  A
N1239      C1240   1.357       .  A
N1239      H1249   1.045       .  S
C1240      C1241   1.394       .  A
C1241      H1247   1.082       .  S
N1242      C1243   1.354       .  A
N1242      H1250   1.045       .  S
C1243      C1244   1.398       .  A
C1244      H1248   1.082       .  S
C1251      C1256   1.384       .  A
C1251      C1252   1.404       .  A
C1251      N1257   1.345       .  A
C1252      C1253   1.403       .  A
C1252      H1263   1.082       .  S
C1253      C1262   1.380       .  A
C1253      C1254   1.384       .  A
C1254      C1255   1.407       .  A
C1254      N1260   1.346       .  A
C1255      C1256   1.407       .  A
C1255      H1264   1.082       .  S
C1256      C1259   1.383       .  A
N1257      C1258   1.355       .  A
N1257      H1267   1.045       .  S
C1258      C1259   1.398       .  A
C1259      H1265   1.082       .  S
N1260      C1261   1.357       .  A
N1260      H1268   1.045       .  S
C1261      C1262   1.395       .  A
C1262      H1266   1.082       .  S
C1269      C1274   1.384       .  A
C1269      C1270   1.403       .  A
C1269      N1275   1.343       .  A
C1270      C1271   1.402       .  A
C1270      H1281   1.082       .  S
C1271      C1280   1.377       .  A
C1271      C1272   1.384       .  A
C1272      C1273   1.407       .  A
C1272      N1278   1.347       .  A
C1273      C1274   1.407       .  A
C1273      H1282   1.082       .  S
C1274      C1277   1.383       .  A
N1275      C1276   1.355       .  A
N1275      H1285   1.045       .  S
C1276      C1277   1.398       .  A
C1277      H1283   1.082       .  S
N1278      C1279   1.357       .  A
N1278      H1286   1.045       .  S
C1279      C1280   1.394       .  A
C1280      H1284   1.082       .  S
C1287      C1292   1.384       .  A
C1287      C1288   1.402       .  A
C1287      N1293   1.342       .  A
C1288      C1289   1.401       .  A
C1288      H1299   1.082       .  S
C1289      C1298   1.377       .  A
C1289      C1290   1.384       .  A
C1290      C1291   1.406       .  A
C1290      N1296   1.345       .  A
C1291      C1292   1.405       .  A
C1291      H1300   1.082       .  S
C1292      C1295   1.383       .  A
N1293      C1294   1.354       .  A
N1293      H1303   1.045       .  S
C1294      C1295   1.397       .  A
C1295      H1301   1.082       .  S
N1296      C1297   1.356       .  A
N1296      H1304   1.045       .  S
C1297      C1298   1.394       .  A
C1298      H1302   1.082       .  S
C1305      C1310   1.384       .  A
C1305      C1306   1.409       .  A
C1305      N1311   1.349       .  A
C1306      C1307   1.408       .  A
C1306      H1317   1.082       .  S
C1307      C1316   1.384       .  A
C1307      C1308   1.385       .  A
C1308      C1309   1.400       .  A
C1308      N1314   1.341       .  A
C1309      C1310   1.400       .  A
C1309      H1318   1.082       .  S
C1310      C1313   1.375       .  A
N1311      C1312   1.359       .  A
N1311      H1321   1.045       .  S
C1312      C1313   1.393       .  A
C1313      H1319   1.082       .  S
N1314      C1315   1.354       .  A
N1314      H1322   1.045       .  S
C1315      C1316   1.398       .  A
C1316      H1320   1.082       .  S
C1323      C1328   1.384       .  A
C1323      C1324   1.406       .  A
C1323      N1329   1.347       .  A
C1324      C1325   1.406       .  A
C1324      H1335   1.082       .  S
C1325      C1334   1.380       .  A
C1325      C1326   1.384       .  A
C1326      C1327   1.406       .  A
C1326      N1332   1.347       .  A
C1327      C1328   1.406       .  A
C1327      H1336   1.082       .  S
C1328      C1331   1.380       .  A
N1329      C1330   1.357       .  A
N1329      H1339   1.045       .  S
C1330      C1331   1.397       .  A
C1331      H1337   1.082       .  S
N1332      C1333   1.357       .  A
N1332      H1340   1.045       .  S
C1333      C1334   1.396       .  A
C1334      H1338   1.082       .  S
C1341      C1346   1.385       .  A
C1341      C1342   1.401       .  A
C1341      N1347   1.341       .  A
C1342      C1343   1.400       .  A
C1342      H1353   1.082       .  S
C1343      C1352   1.376       .  A
C1343      C1344   1.385       .  A
C1344      C1345   1.407       .  A
C1344      N1350   1.345       .  A
C1345      C1346   1.406       .  A
C1345      H1354   1.082       .  S
C1346      C1349   1.382       .  A
N1347      C1348   1.354       .  A
N1347      H1357   1.045       .  S
C1348      C1349   1.397       .  A
C1349      H1355   1.082       .  S
N1350      C1351   1.357       .  A
N1350      H1358   1.045       .  S
C1351      C1352   1.393       .  A
C1352      H1356   1.082       .  S
C1359      C1364   1.384       .  A
C1359      C1360   1.407       .  A
C1359      N1365   1.347       .  A
C1360      C1361   1.406       .  A
C1360      H1371   1.082       .  S
C1361      C1370   1.383       .  A
C1361      C1362   1.384       .  A
C1362      C1363   1.403       .  A
C1362      N1368   1.343       .  A
C1363      C1364   1.402       .  A
C1363      H1372   1.082       .  S
C1364      C1367   1.378       .  A
N1365      C1366   1.357       .  A
N1365      H1375   1.045       .  S
C1366      C1367   1.395       .  A
C1367      H1373   1.082       .  S
N1368      C1369   1.355       .  A
N1368      H1376   1.045       .  S
C1369      C1370   1.397       .  A
C1370      H1374   1.082       .  S
C1377      C1382   1.385       .  A
C1377      C1378   1.400       .  A
C1377      N1383   1.340       .  A
C1378      C1379   1.399       .  A
C1378      H1389   1.083       .  S
C1379      C1388   1.374       .  A
C1379      C1380   1.385       .  A
C1380      C1381   1.406       .  A
C1380      N1386   1.346       .  A
C1381      C1382   1.405       .  A
C1381      H1390   1.082       .  S
C1382      C1385   1.381       .  A
N1383      C1384   1.353       .  A
N1383      H1393   1.045       .  S
C1384      C1385   1.396       .  A
C1385      H1391   1.082       .  S
N1386      C1387   1.357       .  A
N1386      H1394   1.045       .  S
C1387      C1388   1.393       .  A
C1388      H1392   1.083       .  S
C1395      C1400   1.384       .  A
C1395      C1396   1.405       .  A
C1395      N1401   1.345       .  A
C1396      C1397   1.404       .  A
C1396      H1407   1.082       .  S
C1397      C1406   1.381       .  A
C1397      C1398   1.385       .  A
C1398      C1399   1.404       .  A
C1398      N1404   1.344       .  A
C1399      C1400   1.402       .  A
C1399      H1408   1.082       .  S
C1400      C1403   1.379       .  A
N1401      C1402   1.357       .  A
N1401      H1411   1.045       .  S
C1402      C1403   1.394       .  A
C1403      H1409   1.082       .  S
N1404      C1405   1.355       .  A
N1404      H1412   1.045       .  S
C1405      C1406   1.396       .  A
C1406      H1410   1.082       .  S
C1413      C1418   1.384       .  A
C1413      C1414   1.405       .  A
C1413      N1419   1.343       .  A
C1414      C1415   1.404       .  A
C1414      H1425   1.082       .  S
C1415      C1424   1.380       .  A
C1415      C1416   1.385       .  A
C1416      C1417   1.403       .  A
C1416      N1422   1.343       .  A
C1417      C1418   1.402       .  A
C1417      H1426   1.082       .  S
C1418      C1421   1.378       .  A
N1419      C1420   1.356       .  A
N1419      H1429   1.045       .  S
C1420      C1421   1.394       .  A
C1421      H1427   1.082       .  S
N1422      C1423   1.355       .  A
N1422      H1430   1.045       .  S
C1423      C1424   1.396       .  A
C1424      H1428   1.082       .  S
C1431      C1436   1.385       .  A
C1431      C1432   1.397       .  A
C1431      N1437   1.340       .  A
C1432      C1433   1.396       .  A
C1432      H1443   1.083       .  S
C1433      C1442   1.368       .  A
C1433      C1434   1.385       .  A
C1434      C1435   1.408       .  A
C1434      N1440   1.349       .  A
C1435      C1436   1.408       .  A
C1435      H1444   1.082       .  S
C1436      C1439   1.383       .  A
N1437      C1438   1.352       .  A
N1437      H1447   1.045       .  S
C1438      C1439   1.398       .  A
C1439      H1445   1.082       .  S
N1440      C1441   1.358       .  A
N1440      H1448   1.045       .  S
C1441      C1442   1.390       .  A
C1442      H1446   1.083       .  S
C1449      C1454   1.382       .  A
C1449      C1450   1.406       .  A
C1449      N1455   1.346       .  A
C1450      C1451   1.405       .  A
C1450      H1461   1.082       .  S
C1451      C1460   1.381       .  A
C1451      C1452   1.385       .  A
C1452      C1453   1.401       .  A
C1452      N1458   1.342       .  A
C1453      C1454   1.401       .  A
C1453      H1462   1.083       .  S
C1454      C1457   1.373       .  A
N1455      C1456   1.358       .  A
N1455      H1465   1.044       .  S
C1456      C1457   1.399       .  A
C1457      H1463   1.081       .  S
N1458      C1459   1.355       .  A
N1458      H1466   1.045       .  S
C1459      C1460   1.397       .  A
C1460      H1464   1.082       .  S
C1467      C1472   1.384       .  A
C1467      C1468   1.404       .  A
C1467      N1473   1.343       .  A
C1468      C1469   1.403       .  A
C1468      H1479   1.082       .  S
C1469      C1478   1.381       .  A
C1469      C1470   1.384       .  A
C1470      C1471   1.409       .  A
C1470      N1476   1.347       .  A
C1471      C1472   1.407       .  A
C1471      H1480   1.082       .  S
C1472      C1475   1.386       .  A
N1473      C1474   1.355       .  A
N1473      H1483   1.045       .  S
C1474      C1475   1.398       .  A
C1475      H1481   1.082       .  S
N1476      C1477   1.358       .  A
N1476      H1484   1.044       .  S
C1477      C1478   1.397       .  A
C1478      H1482   1.082       .  S
C1485      C1490   1.385       .  A
C1485      C1486   1.408       .  A
C1485      N1491   1.350       .  A
C1486      C1487   1.408       .  A
C1486      H1497   1.082       .  S
C1487      C1496   1.382       .  A
C1487      C1488   1.385       .  A
C1488      C1489   1.401       .  A
C1488      N1494   1.343       .  A
C1489      C1490   1.401       .  A
C1489      H1498   1.082       .  S
C1490      C1493   1.373       .  A
N1491      C1492   1.358       .  A
N1491      H1501   1.044       .  S
C1492      C1493   1.393       .  A
C1493      H1499   1.083       .  S
N1494      C1495   1.354       .  A
N1494      H1502   1.045       .  S
C1495      C1496   1.398       .  A
C1496      H1500   1.082       .  S
C1503      C1508   1.384       .  A
C1503      C1504   1.407       .  A
C1503      N1509   1.345       .  A
C1504      C1505   1.405       .  A
C1504      H1515   1.082       .  S
C1505      C1514   1.382       .  A
C1505      C1506   1.384       .  A
C1506      C1507   1.405       .  A
C1506      N1512   1.344       .  A
C1507      C1508   1.403       .  A
C1507      H1516   1.082       .  S
C1508      C1511   1.381       .  A
N1509      C1510   1.357       .  A
N1509      H1519   1.045       .  S
C1510      C1511   1.396       .  A
C1511      H1517   1.082       .  S
N1512      C1513   1.356       .  A
N1512      H1520   1.045       .  S
C1513      C1514   1.397       .  A
C1514      H1518   1.082       .  S
C1521      C1526   1.385       .  A
C1521      C1522   1.400       .  A
C1521      N1527   1.343       .  A
C1522      C1523   1.401       .  A
C1522      H1533   1.082       .  S
C1523      C1532   1.372       .  A
C1523      C1524   1.383       .  A
C1524      C1525   1.407       .  A
C1524      N1530   1.348       .  A
C1525      C1526   1.407       .  A
C1525      H1534   1.082       .  S
C1526      C1529   1.380       .  A
N1527      C1528   1.354       .  A
N1527      H1537   1.045       .  S
C1528      C1529   1.397       .  A
C1529      H1535   1.082       .  S
N1530      C1531   1.359       .  A
N1530      H1538   1.044       .  S
C1531      C1532   1.398       .  A
C1532      H1536   1.081       .  S
C1539      C1544   1.382       .  A
C1539      C1540   1.407       .  A
C1539      N1545   1.345       .  A
C1540      C1541   1.406       .  A
C1540      H1551   1.082       .  S
C1541      C1550   1.384       .  A
C1541      C1542   1.383       .  A
C1542      C1543   1.404       .  A
C1542      N1548   1.342       .  A
C1543      C1544   1.403       .  A
C1543      H1552   1.082       .  S
C1544      C1547   1.378       .  A
N1545      C1546   1.360       .  A
N1545      H1555   1.044       .  S
C1546      C1547   1.399       .  A
C1547      H1553   1.082       .  S
N1548      C1549   1.357       .  A
N1548      H1556   1.045       .  S
C1549      C1550   1.400       .  A
C1550      H1554   1.081       .  S
C1557      C1562   1.382       .  A
C1557      C1558   1.406       .  A
C1557      N1563   1.348       .  A
C1558      C1559   1.406       .  A
C1558      H1569   1.082       .  S
C1559      C1568   1.380       .  A
C1559      C1560   1.385       .  A
C1560      C1561   1.404       .  A
C1560      N1566   1.345       .  A
C1561      C1562   1.404       .  A
C1561      H1570   1.083       .  S
C1562      C1565   1.375       .  A
N1563      C1564   1.358       .  A
N1563      H1573   1.043       .  S
C1564      C1565   1.402       .  A
C1565      H1571   1.081       .  S
N1566      C1567   1.356       .  A
N1566      H1574   1.045       .  S
C1567      C1568   1.396       .  A
C1568      H1572   1.082       .  S
C1575      C1580   1.384       .  A
C1575      C1576   1.398       .  A
C1575      N1581   1.338       .  A
C1576      C1577   1.397       .  A
C1576      H1587   1.083       .  S
C1577      C1586   1.370       .  A
C1577      C1578   1.384       .  A
C1578      C1579   1.408       .  A
C1578      N1584   1.348       .  A
C1579      C1580   1.407       .  A
C1579      H1588   1.082       .  S
C1580      C1583   1.384       .  A
N1581      C1582   1.354       .  A
N1581      H1591   1.045       .  S
C1582      C1583   1.397       .  A
C1583      H1589   1.082       .  S
N1584      C1585   1.357       .  A
N1584      H1592   1.044       .  S
C1585      C1586   1.394       .  A
C1586      H1590   1.082       .  S
C1593      C1598   1.385       .  A
C1593      C1594   1.398       .  A
C1593      N1599   1.338       .  A
C1594      C1595   1.396       .  A
C1594      H1605   1.083       .  S
C1595      C1604   1.371       .  A
C1595      C1596   1.384       .  A
C1596      C1597   1.408       .  A
C1596      N1602   1.347       .  A
C1597      C1598   1.408       .  A
C1597      H1606   1.082       .  S
C1598      C1601   1.385       .  A
N1599      C1600   1.355       .  A
N1599      H1609   1.044       .  S
C1600      C1601   1.397       .  A
C1601      H1607   1.082       .  S
N1602      C1603   1.358       .  A
N1602      H1610   1.044       .  S
C1603      C1604   1.394       .  A
C1604      H1608   1.082       .  S
C1611      C1616   1.383       .  A
C1611      C1612   1.402       .  A
C1611      N1617   1.343       .  A
C1612      C1613   1.401       .  A
C1612      H1623   1.082       .  S
C1613      C1622   1.373       .  A
C1613      C1614   1.383       .  A
C1614      C1615   1.407       .  A
C1614      N1620   1.348       .  A
C1615      C1616   1.407       .  A
C1615      H1624   1.082       .  S
C1616      C1619   1.380       .  A
N1617      C1618   1.358       .  A
N1617      H1627   1.044       .  S
C1618      C1619   1.401       .  A
C1619      H1625   1.082       .  S
N1620      C1621   1.359       .  A
N1620      H1628   1.044       .  S
C1621      C1622   1.396       .  A
C1622      H1626   1.082       .  S
C1629      C1634   1.383       .  A
C1629      C1630   1.410       .  A
C1629      N1635   1.350       .  A
C1630      C1631   1.410       .  A
C1630      H1641   1.082       .  S
C1631      C1640   1.385       .  A
C1631      C1632   1.384       .  A
C1632      C1633   1.399       .  A
C1632      N1638   1.341       .  A
C1633      C1634   1.399       .  A
C1633      H1642   1.082       .  S
C1634      C1637   1.372       .  A
N1635      C1636   1.359       .  A
N1635      H1645   1.044       .  S
C1636      C1637   1.395       .  A
C1637      H1643   1.082       .  S
N1638      C1639   1.353       .  A
N1638      H1646   1.045       .  S
C1639      C1640   1.400       .  A
C1640      H1644   1.082       .  S
C1647      C1652   1.382       .  A
C1647      C1648   1.406       .  A
C1647      N1653   1.343       .  A
C1648      C1649   1.404       .  A
C1648      H1659   1.082       .  S
C1649      C1658   1.381       .  A
C1649      C1650   1.384       .  A
C1650      C1651   1.403       .  A
C1650      N1656   1.342       .  A
C1651      C1652   1.401       .  A
C1651      H1660   1.082       .  S
C1652      C1655   1.378       .  A
N1653      C1654   1.360       .  A
N1653      H1663   1.043       .  S
C1654      C1655   1.396       .  A
C1655      H1661   1.081       .  S
N1656      C1657   1.355       .  A
N1656      H1664   1.045       .  S
C1657      C1658   1.396       .  A
C1658      H1662   1.082       .  S
C1665      C1670   1.382       .  A
C1665      C1666   1.408   1_556  A
C1665      N1671   1.349       .  A
C1666      C1667   1.409       .  A
C1666      H1677   1.082       .  S
C1667      C1676   1.382       .  A
C1667      C1668   1.383       .  A
C1668      C1669   1.403       .  A
C1668      N1674   1.345       .  A
C1669      C1670   1.403   1_554  A
C1669      H1678   1.082       .  S
C1670      C1673   1.376       .  A
N1671      C1672   1.360       .  A
N1671      H1681   1.044       .  S
C1672      C1673   1.398       .  A
C1673      H1679   1.082       .  S
N1674      C1675   1.358       .  A
N1674      H1682   1.044       .  S
C1675      C1676   1.401       .  A
C1676      H1680   1.082       .  S
C1683      C1688   1.383       .  A
C1683      C1684   1.404       .  A
C1683      N1689   1.341       .  A
C1684      C1685   1.402       .  A
C1684      H1695   1.082       .  S
C1685      C1694   1.380       .  A
C1685      C1686   1.382       .  A
C1686      C1687   1.406       .  A
C1686      N1692   1.342       .  A
C1687      C1688   1.403       .  A
C1687      H1696   1.082       .  S
C1688      C1691   1.382       .  A
N1689      C1690   1.357       .  A
N1689      H1699   1.045       .  S
C1690      C1691   1.399       .  A
C1691      H1697   1.081       .  S
N1692      C1693   1.361       .  A
N1692      H1700   1.043       .  S
C1693      C1694   1.397       .  A
C1694      H1698   1.081       .  S
C1701      C1706   1.383       .  A
C1701      C1702   1.405       .  A
C1701      N1707   1.346       .  A
C1702      C1703   1.405       .  A
C1702      H1713   1.082       .  S
C1703      C1712   1.380       .  A
C1703      C1704   1.384       .  A
C1704      C1705   1.404       .  A
C1704      N1710   1.345       .  A
C1705      C1706   1.404       .  A
C1705      H1714   1.082       .  S
C1706      C1709   1.377       .  A
N1707      C1708   1.358       .  A
N1707      H1717   1.044       .  S
C1708      C1709   1.400       .  A
C1709      H1715   1.082       .  S
N1710      C1711   1.356       .  A
N1710      H1718   1.045       .  S
C1711      C1712   1.397       .  A
C1712      H1716   1.082       .  S
C1719      C1724   1.382       .  A
C1719      C1720   1.409   1_554  A
C1719      N1725   1.348       .  A
C1720      C1721   1.408       .  A
C1720      H1731   1.082       .  S
C1721      C1730   1.385       .  A
C1721      C1722   1.383       .  A
C1722      C1723   1.404       .  A
C1722      N1728   1.343       .  A
C1723      C1724   1.403   1_556  A
C1723      H1732   1.082       .  S
C1724      C1727   1.378       .  A
N1725      C1726   1.361       .  A
N1725      H1735   1.043       .  S
C1726      C1727   1.400       .  A
C1727      H1733   1.081       .  S
N1728      C1729   1.358       .  A
N1728      H1736   1.044       .  S
C1729      C1730   1.400       .  A
C1730      H1734   1.082       .  S
C1737      C1742   1.384       .  A
C1737      C1738   1.412       .  A
C1737      N1743   1.350       .  A
C1738      C1739   1.411       .  A
C1738      H1749   1.082       .  S
C1739      C1748   1.389       .  A
C1739      C1740   1.385       .  A
C1740      C1741   1.395       .  A
C1740      N1746   1.335       .  A
C1741      C1742   1.393       .  A
C1741      H1750   1.083       .  S
C1742      C1745   1.368       .  A
N1743      C1744   1.360       .  A
N1743      H1753   1.044       .  S
C1744      C1745   1.391       .  A
C1745      H1751   1.082       .  S
N1746      C1747   1.352       .  A
N1746      H1754   1.045       .  S
C1747      C1748   1.400       .  A
C1748      H1752   1.082       .  S
C1755      C1760   1.383       .  A
C1755      C1756   1.399       .  A
C1755      N1761   1.341       .  A
C1756      C1757   1.398       .  A
C1756      H1767   1.082       .  S
C1757      C1766   1.372       .  A
C1757      C1758   1.382       .  A
C1758      C1759   1.411       .  A
C1758      N1764   1.350       .  A
C1759      C1760   1.411       .  A
C1759      H1768   1.082       .  S
C1760      C1763   1.386       .  A
N1761      C1762   1.356       .  A
N1761      H1771   1.044       .  S
C1762      C1763   1.403       .  A
C1763      H1769   1.082       .  S
N1764      C1765   1.362       .  A
N1764      H1772   1.044       .  S
C1765      C1766   1.397       .  A
C1766      H1770   1.081       .  S
C1773      C1778   1.384       .  A
C1773      C1774   1.405       .  A
C1773      N1779   1.342       .  A
C1774      C1775   1.403       .  A
C1774      H1785   1.082       .  S
C1775      C1784   1.381       .  A
C1775      C1776   1.384       .  A
C1776      C1777   1.403       .  A
C1776      N1782   1.341       .  A
C1777      C1778   1.401       .  A
C1777      H1786   1.082       .  S
C1778      C1781   1.378       .  A
N1779      C1780   1.357       .  A
N1779      H1789   1.044       .  S
C1780      C1781   1.394       .  A
C1781      H1787   1.082       .  S
N1782      C1783   1.356       .  A
N1782      H1790   1.044       .  S
C1783      C1784   1.396       .  A
C1784      H1788   1.082       .  S
C1791      C1796   1.382       .  A
C1791      C1792   1.404       .  A
C1791      N1797   1.345       .  A
C1792      C1793   1.403       .  A
C1792      H1803   1.082       .  S
C1793      C1802   1.376       .  A
C1793      C1794   1.382       .  A
C1794      C1795   1.407       .  A
C1794      N1800   1.348       .  A
C1795      C1796   1.407       .  A
C1795      H1804   1.082       .  S
C1796      C1799   1.381       .  A
N1797      C1798   1.358       .  A
N1797      H1807   1.045       .  S
C1798      C1799   1.402       .  A
C1799      H1805   1.082       .  S
N1800      C1801   1.360       .  A
N1800      H1808   1.044       .  S
C1801      C1802   1.398       .  A
C1802      H1806   1.082       .  S
C1809      C1814   1.382       .  A
C1809      C1810   1.410       .  A
C1809      N1815   1.349       .  A
C1810      C1811   1.410       .  A
C1810      H1821   1.082       .  S
C1811      C1820   1.385       .  A
C1811      C1812   1.385       .  A
C1812      C1813   1.400       .  A
C1812      N1818   1.342       .  A
C1813      C1814   1.400       .  A
C1813      H1822   1.082       .  S
C1814      C1817   1.374       .  A
N1815      C1816   1.362       .  A
N1815      H1825   1.044       .  S
C1816      C1817   1.396       .  A
C1817      H1823   1.081       .  S
N1818      C1819   1.353       .  A
N1818      H1826   1.045       .  S
C1819      C1820   1.399       .  A
C1820      H1824   1.082       .  S
C1827      C1832   1.382       .  A
C1827      C1828   1.406       .  A
C1827      N1833   1.350       .  A
C1828      C1829   1.408       .  A
C1828      H1839   1.082       .  S
C1829      C1838   1.379       .  A
C1829      C1830   1.383       .  A
C1830      C1831   1.406       .  A
C1830      N1836   1.350       .  A
C1831      C1832   1.407       .  A
C1831      H1840   1.082       .  S
C1832      C1835   1.376       .  A
N1833      C1834   1.359       .  A
N1833      H1843   1.044       .  S
C1834      C1835   1.403       .  A
C1835      H1841   1.081       .  S
N1836      C1837   1.359       .  A
N1836      H1844   1.043       .  S
C1837      C1838   1.401       .  A
C1838      H1842   1.082       .  S
C1845      C1850   1.383       .  A
C1845      C1846   1.405       .  A
C1845      N1851   1.342       .  A
C1846      C1847   1.403       .  A
C1846      H1857   1.082       .  S
C1847      C1856   1.381       .  A
C1847      C1848   1.384       .  A
C1848      C1849   1.407       .  A
C1848      N1854   1.345       .  A
C1849      C1850   1.405       .  A
C1849      H1858   1.082       .  S
C1850      C1853   1.384       .  A
N1851      C1852   1.359       .  A
N1851      H1861   1.044       .  S
C1852      C1853   1.398       .  A
C1853      H1859   1.082       .  S
N1854      C1855   1.357       .  A
N1854      H1862   1.045       .  S
C1855      C1856   1.396       .  A
C1856      H1860   1.082       .  S
C1863      C1868   1.386       .  A
C1863      C1864   1.394       .  A
C1863      N1869   1.337       .  A
C1864      C1865   1.394       .  A
C1864      H1875   1.083       .  S
C1865      C1874   1.366       .  A
C1865      C1866   1.386       .  A
C1866      C1867   1.408       .  A
C1866      N1872   1.348       .  A
C1867      C1868   1.408       .  A
C1867      H1876   1.082       .  S
C1868      C1871   1.383       .  A
N1869      C1870   1.351       .  A
N1869      H1879   1.045       .  S
C1870      C1871   1.396       .  A
C1871      H1877   1.082       .  S
N1872      C1873   1.356       .  A
N1872      H1880   1.045       .  S
C1873      C1874   1.390       .  A
C1874      H1878   1.083       .  S
C1881      C1886   1.384       .  A
C1881      C1882   1.397       .  A
C1881      N1887   1.336       .  A
C1882      C1883   1.395       .  A
C1882      H1893   1.083       .  S
C1883      C1892   1.369       .  A
C1883      C1884   1.383       .  A
C1884      C1885   1.410       .  A
C1884      N1890   1.349       .  A
C1885      C1886   1.409       .  A
C1885      H1894   1.082       .  S
C1886      C1889   1.386       .  A
N1887      C1888   1.355       .  A
N1887      H1897   1.044       .  S
C1888      C1889   1.399       .  A
C1889      H1895   1.082       .  S
N1890      C1891   1.358       .  A
N1890      H1898   1.044       .  S
C1891      C1892   1.394       .  A
C1892      H1896   1.082       .  S
C1899      C1904   1.382       .  A
C1899      C1900   1.405       .  A
C1899      N1905   1.341       .  A
C1900      C1901   1.403       .  A
C1900      H1911   1.082       .  S
C1901      C1910   1.381       .  A
C1901      C1902   1.383       .  A
C1902      C1903   1.405       .  A
C1902      N1908   1.341       .  A
C1903      C1904   1.402       .  A
C1903      H1912   1.082       .  S
C1904      C1907   1.381       .  A
N1905      C1906   1.360       .  A
N1905      H1915   1.043       .  S
C1906      C1907   1.397       .  A
C1907      H1913   1.081       .  S
N1908      C1909   1.357       .  A
N1908      H1916   1.045       .  S
C1909      C1910   1.399       .  A
C1910      H1914   1.081       .  S
C1917      C1922   1.383       .  A
C1917      C1918   1.406       .  A
C1917      N1923   1.343       .  A
C1918      C1919   1.404       .  A
C1918      H1929   1.082       .  S
C1919      C1928   1.381       .  A
C1919      C1920   1.384       .  A
C1920      C1921   1.407       .  A
C1920      N1926   1.346       .  A
C1921      C1922   1.406       .  A
C1921      H1930   1.082       .  S
C1922      C1925   1.384       .  A
N1923      C1924   1.358       .  A
N1923      H1933   1.044       .  S
C1924      C1925   1.398       .  A
C1925      H1931   1.082       .  S
N1926      C1927   1.357       .  A
N1926      H1934   1.045       .  S
C1927      C1928   1.396       .  A
C1928      H1932   1.082       .  S
C1935      C1940   1.383       .  A
C1935      C1936   1.404   1_554  A
C1935      N1941   1.346       .  A
C1936      C1937   1.404       .  A
C1936      H1947   1.082       .  S
C1937      C1946   1.377       .  A
C1937      C1938   1.382       .  A
C1938      C1939   1.409       .  A
C1938      N1944   1.349       .  A
C1939      C1940   1.409   1_556  A
C1939      H1948   1.082       .  S
C1940      C1943   1.383       .  A
N1941      C1942   1.358       .  A
N1941      H1951   1.043       .  S
C1942      C1943   1.403       .  A
C1943      H1949   1.082       .  S
N1944      C1945   1.361       .  A
N1944      H1952   1.044       .  S
C1945      C1946   1.399       .  A
C1946      H1950   1.081       .  S
C1953      C1958   1.384       .  A
C1953      C1954   1.409       .  A
C1953      N1959   1.348       .  A
C1954      C1955   1.409       .  A
C1954      H1965   1.082       .  S
C1955      C1964   1.387       .  A
C1955      C1956   1.384       .  A
C1956      C1957   1.405       .  A
C1956      N1962   1.344       .  A
C1957      C1958   1.403       .  A
C1957      H1966   1.082       .  S
C1958      C1961   1.379       .  A
N1959      C1960   1.358       .  A
N1959      H1969   1.044       .  S
C1960      C1961   1.395       .  A
C1961      H1967   1.082       .  S
N1962      C1963   1.357       .  A
N1962      H1970   1.045       .  S
C1963      C1964   1.399       .  A
C1964      H1968   1.082       .  S
C1971      C1976   1.382       .  A
C1971      C1972   1.405       .  A
C1971      N1977   1.343       .  A
C1972      C1973   1.403       .  A
C1972      H1983   1.082       .  S
C1973      C1982   1.378       .  A
C1973      C1974   1.383       .  A
C1974      C1975   1.407       .  A
C1974      N1980   1.346       .  A
C1975      C1976   1.405       .  A
C1975      H1984   1.082       .  S
C1976      C1979   1.383       .  A
N1977      C1978   1.358       .  A
N1977      H1987   1.045       .  S
C1978      C1979   1.399       .  A
C1979      H1985   1.081       .  S
N1980      C1981   1.360       .  A
N1980      H1988   1.043       .  S
C1981      C1982   1.398       .  A
C1982      H1986   1.082       .  S
C1989      C1994   1.384       .  A
C1989      C1990   1.408       .  A
C1989      N1995   1.346       .  A
C1990      C1991   1.407       .  A
C1990      H2001   1.082       .  S
C1991      C2000   1.384       .  A
C1991      C1992   1.382       .  A
C1992      C1993   1.404       .  A
C1992      N1998   1.342       .  A
C1993      C1994   1.403       .  A
C1993      H2002   1.082       .  S
C1994      C1997   1.380       .  A
N1995      C1996   1.358       .  A
N1995      H2005   1.045       .  S
C1996      C1997   1.396       .  A
C1997      H2003   1.082       .  S
N1998      C1999   1.359       .  A
N1998      H2006   1.043       .  S
C1999      C2000   1.399       .  A
C2000      H2004   1.082       .  S
C2007      C2012   1.382       .  A
C2007      C2008   1.407   1_554  A
C2007      N2013   1.346       .  A
C2008      C2009   1.406       .  A
C2008      H2019   1.082       .  S
C2009      C2018   1.382       .  A
C2009      C2010   1.382       .  A
C2010      C2011   1.404       .  A
C2010      N2016   1.343       .  A
C2011      C2012   1.403   1_556  A
C2011      H2020   1.082       .  S
C2012      C2015   1.378       .  A
N2013      C2014   1.360       .  A
N2013      H2023   1.043       .  S
C2014      C2015   1.399       .  A
C2015      H2021   1.082       .  S
N2016      C2017   1.359       .  A
N2016      H2024   1.044       .  S
C2017      C2018   1.400       .  A
C2018      H2022   1.081       .  S
C2025      C2030   1.385       .  A
C2025      C2026   1.408       .  A
C2025      N2031   1.348       .  A
C2026      C2027   1.408       .  A
C2026      H2037   1.082       .  S
C2027      C2036   1.385       .  A
C2027      C2028   1.385       .  A
C2028      C2029   1.398       .  A
C2028      N2034   1.339       .  A
C2029      C2030   1.397       .  A
C2029      H2038   1.083       .  S
C2030      C2033   1.371       .  A
N2031      C2032   1.356       .  A
N2031      H2041   1.045       .  S
C2032      C2033   1.392       .  A
C2033      H2039   1.083       .  S
N2034      C2035   1.353       .  A
N2034      H2042   1.045       .  S
C2035      C2036   1.396       .  A
C2036      H2040   1.082       .  S
C2043      C2048   1.384       .  A
C2043      C2044   1.410       .  A
C2043      N2049   1.349       .  A
C2044      C2045   1.409       .  A
C2044      H2055   1.082       .  S
C2045      C2054   1.385       .  A
C2045      C2046   1.384       .  A
C2046      C2047   1.401       .  A
C2046      N2052   1.342       .  A
C2047      C2048   1.401       .  A
C2047      H2056   1.083       .  S
C2048      C2051   1.376       .  A
N2049      C2050   1.359       .  A
N2049      H2059   1.045       .  S
C2050      C2051   1.396       .  A
C2051      H2057   1.082       .  S
N2052      C2053   1.355       .  A
N2052      H2060   1.044       .  S
C2053      C2054   1.399       .  A
C2054      H2058   1.082       .  S
C2061      C2066   1.384       .  A
C2061      C2062   1.405       .  A
C2061      N2067   1.342       .  A
C2062      C2063   1.402       .  A
C2062      H2073   1.082       .  S
C2063      C2072   1.380       .  A
C2063      C2064   1.383       .  A
C2064      C2065   1.405       .  A
C2064      N2070   1.342       .  A
C2065      C2066   1.403       .  A
C2065      H2074   1.082       .  S
C2066      C2069   1.382       .  A
N2067      C2068   1.357       .  A
N2067      H2077   1.044       .  S
C2068      C2069   1.395       .  A
C2069      H2075   1.082       .  S
N2070      C2071   1.358       .  A
N2070      H2078   1.044       .  S
C2071      C2072   1.396       .  A
C2072      H2076   1.082       .  S
C2079      C2084   1.382       .  A
C2079      C2080   1.410       .  A
C2079      N2085   1.345       .  A
C2080      C2081   1.407       .  A
C2080      H2091   1.082       .  S
C2081      C2090   1.387       .  A
C2081      C2082   1.383       .  A
C2082      C2083   1.403       .  A
C2082      N2088   1.340       .  A
C2083      C2084   1.401       .  A
C2083      H2092   1.082       .  S
C2084      C2087   1.380       .  A
N2085      C2086   1.362       .  A
N2085      H2095   1.044       .  S
C2086      C2087   1.396       .  A
C2087      H2093   1.081       .  S
N2088      C2089   1.356       .  A
N2088      H2096   1.045       .  S
C2089      C2090   1.402       .  A
C2090      H2094   1.081       .  S
C2097      C2102   1.384       .  A
C2097      C2098   1.405       .  A
C2097      N2103   1.346       .  A
C2098      C2099   1.404       .  A
C2098      H2109   1.082       .  S
C2099      C2108   1.377       .  A
C2099      C2100   1.382       .  A
C2100      C2101   1.405       .  A
C2100      N2106   1.345       .  A
C2101      C2102   1.405       .  A
C2101      H2110   1.082       .  S
C2102      C2105   1.380       .  A
N2103      C2104   1.356       .  A
N2103      H2113   1.045       .  S
C2104      C2105   1.397       .  A
C2105      H2111   1.082       .  S
N2106      C2107   1.359       .  A
N2106      H2114   1.043       .  S
C2107      C2108   1.400       .  A
C2108      H2112   1.081       .  S
C2115      C2120   1.385       .  A
C2115      C2116   1.403       .  A
C2115      N2121   1.344       .  A
C2116      C2117   1.402   1_655  A
C2116      H2127   1.082       .  S
C2117      C2126   1.377       .  A
C2117      C2118   1.384       .  A
C2118      C2119   1.407   1_455  A
C2118      N2124   1.347       .  A
C2119      C2120   1.406       .  A
C2119      H2128   1.082       .  S
C2120      C2123   1.382       .  A
N2121      C2122   1.355       .  A
N2121      H2131   1.045       .  S
C2122      C2123   1.397       .  A
C2123      H2129   1.082       .  S
N2124      C2125   1.357       .  A
N2124      H2132   1.045       .  S
C2125      C2126   1.394       .  A
C2126      H2130   1.082       .  S
C2133      C2138   1.383       .  A
C2133      C2134   1.403       .  A
C2133      N2139   1.344       .  A
C2134      C2135   1.402       .  A
C2134      H2145   1.082       .  S
C2135      C2144   1.377       .  A
C2135      C2136   1.384       .  A
C2136      C2137   1.407       .  A
C2136      N2142   1.347       .  A
C2137      C2138   1.407       .  A
C2137      H2146   1.082       .  S
C2138      C2141   1.380       .  A
N2139      C2140   1.356       .  A
N2139      H2149   1.045       .  S
C2140      C2141   1.404       .  A
C2141      H2147   1.081       .  S
N2142      C2143   1.358       .  A
N2142      H2150   1.045       .  S
C2143      C2144   1.394       .  A
C2144      H2148   1.082       .  S
C2151      C2156   1.382       .  A
C2151      C2152   1.411       .  A
C2151      N2157   1.351       .  A
C2152      C2153   1.412       .  A
C2152      H2163   1.082       .  S
C2153      C2162   1.386       .  A
C2153      C2154   1.384       .  A
C2154      C2155   1.401       .  A
C2154      N2160   1.344       .  A
C2155      C2156   1.401       .  A
C2155      H2164   1.082       .  S
C2156      C2159   1.373       .  A
N2157      C2158   1.361       .  A
N2157      H2167   1.044       .  S
C2158      C2159   1.399       .  A
C2159      H2165   1.081       .  S
N2160      C2161   1.354       .  A
N2160      H2168   1.045       .  S
C2161      C2162   1.401       .  A
C2162      H2166   1.082       .  S
C2169      C2174   1.384       .  A
C2169      C2170   1.405   1_455  A
C2169      N2175   1.345       .  A
C2170      C2171   1.404       .  A
C2170      H2181   1.082       .  S
C2171      C2180   1.381       .  A
C2171      C2172   1.383       .  A
C2172      C2173   1.411       .  A
C2172      N2178   1.351       .  A
C2173      C2174   1.410   1_655  A
C2173      H2182   1.082       .  S
C2174      C2177   1.387       .  A
N2175      C2176   1.356       .  A
N2175      H2185   1.045       .  S
C2176      C2177   1.399       .  A
C2177      H2183   1.082       .  S
N2178      C2179   1.360       .  A
N2178      H2186   1.045       .  S
C2179      C2180   1.396       .  A
C2180      H2184   1.082       .  S
C2187      C2192   1.383       .  A
C2187      C2188   1.404       .  A
C2187      N2193   1.342       .  A
C2188      C2189   1.402       .  A
C2188      H2199   1.082       .  S
C2189      C2198   1.380       .  A
C2189      C2190   1.384       .  A
C2190      C2191   1.406       .  A
C2190      N2196   1.344       .  A
C2191      C2192   1.404       .  A
C2191      H2200   1.082       .  S
C2192      C2195   1.381       .  A
N2193      C2194   1.356       .  A
N2193      H2203   1.045       .  S
C2194      C2195   1.401       .  A
C2195      H2201   1.081       .  S
N2196      C2197   1.357       .  A
N2196      H2204   1.045       .  S
C2197      C2198   1.394       .  A
C2198      H2202   1.082       .  S
C2205      C2210   1.384       .  A
C2205      C2206   1.408       .  A
C2205      N2211   1.348       .  A
C2206      C2207   1.408       .  A
C2206      H2217   1.082       .  S
C2207      C2216   1.385       .  A
C2207      C2208   1.384       .  A
C2208      C2209   1.402       .  A
C2208      N2214   1.342       .  A
C2209      C2210   1.401       .  A
C2209      H2218   1.083       .  S
C2210      C2213   1.375       .  A
N2211      C2212   1.357       .  A
N2211      H2221   1.044       .  S
C2212      C2213   1.394       .  A
C2213      H2219   1.083       .  S
N2214      C2215   1.356       .  A
N2214      H2222   1.045       .  S
C2215      C2216   1.398       .  A
C2216      H2220   1.082       .  S
C2223      C2228   1.384       .  A
C2223      C2224   1.404       .  A
C2223      N2229   1.345       .  A
C2224      C2225   1.403       .  A
C2224      H2235   1.082       .  S
C2225      C2234   1.377       .  A
C2225      C2226   1.382       .  A
C2226      C2227   1.407       .  A
C2226      N2232   1.346       .  A
C2227      C2228   1.407       .  A
C2227      H2236   1.082       .  S
C2228      C2231   1.383       .  A
N2229      C2230   1.356       .  A
N2229      H2239   1.045       .  S
C2230      C2231   1.398       .  A
C2231      H2237   1.082       .  S
N2232      C2233   1.360       .  A
N2232      H2240   1.043       .  S
C2233      C2234   1.399       .  A
C2234      H2238   1.081       .  S
C2241      C2246   1.384       .  A
C2241      C2242   1.401       .  A
C2241      N2247   1.341       .  A
C2242      C2243   1.399       .  A
C2242      H2253   1.082       .  S
C2243      C2252   1.375       .  A
C2243      C2244   1.384       .  A
C2244      C2245   1.410       .  A
C2244      N2250   1.349       .  A
C2245      C2246   1.409       .  A
C2245      H2254   1.082       .  S
C2246      C2249   1.386       .  A
N2247      C2248   1.355       .  A
N2247      H2257   1.045       .  S
C2248      C2249   1.399       .  A
C2249      H2255   1.082       .  S
N2250      C2251   1.359       .  A
N2250      H2258   1.045       .  S
C2251      C2252   1.393       .  A
C2252      H2256   1.082       .  S
C2259      C2264   1.384       .  A
C2259      C2260   1.408   1_565  A
C2259      N2265   1.347       .  A
C2260      C2261   1.408       .  A
C2260      H2271   1.082       .  S
C2261      C2270   1.384       .  A
C2261      C2262   1.384       .  A
C2262      C2263   1.406       .  A
C2262      N2268   1.346       .  A
C2263      C2264   1.405   1_545  A
C2263      H2272   1.082       .  S
C2264      C2267   1.382       .  A
N2265      C2266   1.358       .  A
N2265      H2275   1.045       .  S
C2266      C2267   1.397       .  A
C2267      H2273   1.082       .  S
N2268      C2269   1.356       .  A
N2268      H2276   1.045       .  S
C2269      C2270   1.399       .  A
C2270      H2274   1.082       .  S
C2277      C2282   1.385       .  A
C2277      C2278   1.401       .  A
C2277      N2283   1.344       .  A
C2278      C2279   1.401       .  A
C2278      H2289   1.082       .  S
C2279      C2288   1.372       .  A
C2279      C2280   1.383       .  A
C2280      C2281   1.408       .  A
C2280      N2286   1.350       .  A
C2281      C2282   1.409       .  A
C2281      H2290   1.082       .  S
C2282      C2285   1.382       .  A
N2283      C2284   1.354       .  A
N2283      H2293   1.045       .  S
C2284      C2285   1.399       .  A
C2285      H2291   1.082       .  S
N2286      C2287   1.360       .  A
N2286      H2294   1.044       .  S
C2287      C2288   1.397       .  A
C2288      H2292   1.082       .  S
C2295      C2300   1.384       .  A
C2295      C2296   1.406       .  A
C2295      N2301   1.346       .  A
C2296      C2297   1.405       .  A
C2296      H2307   1.082       .  S
C2297      C2306   1.382       .  A
C2297      C2298   1.384       .  A
C2298      C2299   1.403       .  A
C2298      N2304   1.343       .  A
C2299      C2300   1.402       .  A
C2299      H2308   1.082       .  S
C2300      C2303   1.378       .  A
N2301      C2302   1.357       .  A
N2301      H2311   1.045       .  S
C2302      C2303   1.395       .  A
C2303      H2309   1.082       .  S
N2304      C2305   1.356       .  A
N2304      H2312   1.045       .  S
C2305      C2306   1.396       .  A
C2306      H2310   1.082       .  S
C2313      C2318   1.384       .  A
C2313      C2314   1.408       .  A
C2313      N2319   1.348       .  A
C2314      C2315   1.407       .  A
C2314      H2325   1.082       .  S
C2315      C2324   1.383       .  A
C2315      C2316   1.385       .  A
C2316      C2317   1.400       .  A
C2316      N2322   1.341       .  A
C2317      C2318   1.399       .  A
C2317      H2326   1.082       .  S
C2318      C2321   1.373       .  A
N2319      C2320   1.358       .  A
N2319      H2329   1.045       .  S
C2320      C2321   1.392       .  A
C2321      H2327   1.083       .  S
N2322      C2323   1.354       .  A
N2322      H2330   1.045       .  S
C2323      C2324   1.397       .  A
C2324      H2328   1.082       .  S
C2331      C2336   1.384       .  A
C2331      C2332   1.404   1_565  A
C2331      N2337   1.344       .  A
C2332      C2333   1.403       .  A
C2332      H2343   1.082       .  S
C2333      C2342   1.380       .  A
C2333      C2334   1.384       .  A
C2334      C2335   1.407       .  A
C2334      N2340   1.346       .  A
C2335      C2336   1.406   1_545  A
C2335      H2344   1.082       .  S
C2336      C2339   1.382       .  A
N2337      C2338   1.355       .  A
N2337      H2347   1.045       .  S
C2338      C2339   1.397       .  A
C2339      H2345   1.082       .  S
N2340      C2341   1.357       .  A
N2340      H2348   1.045       .  S
C2341      C2342   1.396       .  A
C2342      H2346   1.082       .  S
C2349      C2354   1.382       .  A
C2349      C2350   1.405       .  A
C2349      N2355   1.345       .  A
C2350      C2351   1.404       .  A
C2350      H2361   1.082       .  S
C2351      C2360   1.380       .  A
C2351      C2352   1.384       .  A
C2352      C2353   1.404       .  A
C2352      N2358   1.345       .  A
C2353      C2354   1.404       .  A
C2353      H2362   1.082       .  S
C2354      C2357   1.377       .  A
N2355      C2356   1.358       .  A
N2355      H2365   1.043       .  S
C2356      C2357   1.401       .  A
C2357      H2363   1.081       .  S
N2358      C2359   1.356       .  A
N2358      H2366   1.045       .  S
C2359      C2360   1.396       .  A
C2360      H2364   1.082       .  S
C2367      C2372   1.385       .  A
C2367      C2368   1.404       .  A
C2367      N2373   1.345       .  A
C2368      C2369   1.404   1_554  A
C2368      H2379   1.082       .  S
C2369      C2378   1.379       .  A
C2369      C2370   1.385       .  A
C2370      C2371   1.400   1_556  A
C2370      N2376   1.341       .  A
C2371      C2372   1.400       .  A
C2371      H2380   1.082       .  S
C2372      C2375   1.375       .  A
N2373      C2374   1.356       .  A
N2373      H2383   1.045       .  S
C2374      C2375   1.394       .  A
C2375      H2381   1.083       .  S
N2376      C2377   1.353       .  A
N2376      H2384   1.045       .  S
C2377      C2378   1.395       .  A
C2378      H2382   1.082       .  S
C2385      C2390   1.384       .  A
C2385      C2386   1.404       .  A
C2385      N2391   1.343       .  A
C2386      C2387   1.403   1_554  A
C2386      H2397   1.082       .  S
C2387      C2396   1.380       .  A
C2387      C2388   1.384       .  A
C2388      C2389   1.405   1_556  A
C2388      N2394   1.344       .  A
C2389      C2390   1.404       .  A
C2389      H2398   1.082       .  S
C2390      C2393   1.380       .  A
N2391      C2392   1.355       .  A
N2391      H2401   1.045       .  S
C2392      C2393   1.396       .  A
C2393      H2399   1.082       .  S
N2394      C2395   1.357       .  A
N2394      H2402   1.045       .  S
C2395      C2396   1.395       .  A
C2396      H2400   1.082       .  S
C2403      C2408   1.384       .  A
C2403      C2404   1.406   1_565  A
C2403      N2409   1.346       .  A
C2404      C2405   1.405       .  A
C2404      H2415   1.082       .  S
C2405      C2414   1.380       .  A
C2405      C2406   1.384       .  A
C2406      C2407   1.405       .  A
C2406      N2412   1.346       .  A
C2407      C2408   1.405   1_545  A
C2407      H2416   1.082       .  S
C2408      C2411   1.380       .  A
N2409      C2410   1.357       .  A
N2409      H2419   1.045       .  S
C2410      C2411   1.397       .  A
C2411      H2417   1.082       .  S
N2412      C2413   1.356       .  A
N2412      H2420   1.045       .  S
C2413      C2414   1.396       .  A
C2414      H2418   1.082       .  S
C2421      C2426   1.384       .  A
C2421      C2422   1.406       .  A
C2421      N2427   1.346       .  A
C2422      C2423   1.406       .  A
C2422      H2433   1.082       .  S
C2423      C2432   1.381       .  A
C2423      C2424   1.382       .  A
C2424      C2425   1.403       .  A
C2424      N2430   1.343       .  A
C2425      C2426   1.401       .  A
C2425      H2434   1.082       .  S
C2426      C2429   1.376       .  A
N2427      C2428   1.357       .  A
N2427      H2437   1.045       .  S
C2428      C2429   1.393       .  A
C2429      H2435   1.082       .  S
N2430      C2431   1.358       .  A
N2430      H2438   1.043       .  S
C2431      C2432   1.400       .  A
C2432      H2436   1.081       .  S
C2439      C2444   1.385       .  A
C2439      C2440   1.399       .  A
C2439      N2445   1.338       .  A
C2440      C2441   1.397   1_554  A
C2440      H2451   1.082       .  S
C2441      C2450   1.374       .  A
C2441      C2442   1.384       .  A
C2442      C2443   1.408       .  A
C2442      N2448   1.345       .  A
C2443      C2444   1.407   1_556  A
C2443      H2452   1.082       .  S
C2444      C2447   1.385       .  A
N2445      C2446   1.352       .  A
N2445      H2455   1.045       .  S
C2446      C2447   1.399       .  A
C2447      H2453   1.082       .  S
N2448      C2449   1.357       .  A
N2448      H2456   1.045       .  S
C2449      C2450   1.392       .  A
C2450      H2454   1.083       .  S
C2457      C2462   1.383       .  A
C2457      C2458   1.401       .  A
C2457      N2463   1.343       .  A
C2458      C2459   1.401       .  A
C2458      H2469   1.082       .  S
C2459      C2468   1.374       .  A
C2459      C2460   1.384       .  A
C2460      C2461   1.406       .  A
C2460      N2466   1.347       .  A
C2461      C2462   1.407       .  A
C2461      H2470   1.082       .  S
C2462      C2465   1.379       .  A
N2463      C2464   1.357       .  A
N2463      H2473   1.044       .  S
C2464      C2465   1.400       .  A
C2465      H2471   1.081       .  S
N2466      C2467   1.357       .  A
N2466      H2474   1.045       .  S
C2467      C2468   1.393       .  A
C2468      H2472   1.082       .  S
C2475      C2480   1.385       .  A
C2475      C2476   1.407   1_556  A
C2475      N2481   1.346       .  A
C2476      C2477   1.406       .  A
C2476      H2487   1.082       .  S
C2477      C2486   1.382       .  A
C2477      C2478   1.385       .  A
C2478      C2479   1.399       .  A
C2478      N2484   1.340       .  A
C2479      C2480   1.398   1_554  A
C2479      H2488   1.082       .  S
C2480      C2483   1.374       .  A
N2481      C2482   1.357       .  A
N2481      H2491   1.045       .  S
C2482      C2483   1.393       .  A
C2483      H2489   1.083       .  S
N2484      C2485   1.352       .  A
N2484      H2492   1.045       .  S
C2485      C2486   1.398       .  A
C2486      H2490   1.082       .  S
C2493      C2498   1.384       .  A
C2493      C2494   1.408       .  A
C2493      N2499   1.346       .  A
C2494      C2495   1.406       .  A
C2494      H2505   1.082       .  S
C2495      C2504   1.385       .  A
C2495      C2496   1.385       .  A
C2496      C2497   1.400       .  A
C2496      N2502   1.338       .  A
C2497      C2498   1.398       .  A
C2497      H2506   1.083       .  S
C2498      C2501   1.375       .  A
N2499      C2500   1.357       .  A
N2499      H2509   1.045       .  S
C2500      C2501   1.393       .  A
C2501      H2507   1.083       .  S
N2502      C2503   1.353       .  A
N2502      H2510   1.045       .  S
C2503      C2504   1.398       .  A
C2504      H2508   1.082       .  S
C2511      C2516   1.384       .  A
C2511      C2512   1.405       .  A
C2511      N2517   1.345       .  A
C2512      C2513   1.404   1_455  A
C2512      H2523   1.082       .  S
C2513      C2522   1.381       .  A
C2513      C2514   1.384       .  A
C2514      C2515   1.406   1_655  A
C2514      N2520   1.346       .  A
C2515      C2516   1.405       .  A
C2515      H2524   1.082       .  S
C2516      C2519   1.381       .  A
N2517      C2518   1.356       .  A
N2517      H2527   1.045       .  S
C2518      C2519   1.397       .  A
C2519      H2525   1.082       .  S
N2520      C2521   1.357       .  A
N2520      H2528   1.045       .  S
C2521      C2522   1.396       .  A
C2522      H2526   1.082       .  S
C2529      C2534   1.383       .  A
C2529      C2530   1.405       .  A
C2529      N2535   1.345       .  A
C2530      C2531   1.404       .  A
C2530      H2541   1.082       .  S
C2531      C2540   1.379       .  A
C2531      C2532   1.385       .  A
C2532      C2533   1.402       .  A
C2532      N2538   1.344       .  A
C2533      C2534   1.402       .  A
C2533      H2542   1.082       .  S
C2534      C2537   1.375       .  A
N2535      C2536   1.359       .  A
N2535      H2545   1.043       .  S
C2536      C2537   1.397       .  A
C2537      H2543   1.083       .  S
N2538      C2539   1.355       .  A
N2538      H2546   1.045       .  S
C2539      C2540   1.395       .  A
C2540      H2544   1.082       .  S
C2547      C2552   1.385       .  A
C2547      C2548   1.400   1_554  A
C2547      N2553   1.340       .  A
C2548      C2549   1.399       .  A
C2548      H2559   1.082       .  S
C2549      C2558   1.375       .  A
C2549      C2550   1.385       .  A
C2550      C2551   1.406       .  A
C2550      N2556   1.345       .  A
C2551      C2552   1.405   1_556  A
C2551      H2560   1.082       .  S
C2552      C2555   1.381       .  A
N2553      C2554   1.354       .  A
N2553      H2563   1.045       .  S
C2554      C2555   1.396       .  A
C2555      H2561   1.082       .  S
N2556      C2557   1.357       .  A
N2556      H2564   1.045       .  S
C2557      C2558   1.392       .  A
C2558      H2562   1.082       .  S
C2565      C2570   1.385       .  A
C2565      C2566   1.399       .  A
C2565      N2571   1.338       .  A
C2566      C2567   1.397       .  A
C2566      H2577   1.083       .  S
C2567      C2576   1.372       .  A
C2567      C2568   1.385       .  A
C2568      C2569   1.407       .  A
C2568      N2574   1.346       .  A
C2569      C2570   1.407       .  A
C2569      H2578   1.082       .  S
C2570      C2573   1.384       .  A
N2571      C2572   1.353       .  A
N2571      H2581   1.045       .  S
C2572      C2573   1.398       .  A
C2573      H2579   1.082       .  S
N2574      C2575   1.357       .  A
N2574      H2582   1.045       .  S
C2575      C2576   1.391       .  A
C2576      H2580   1.083       .  S
C2583      C2588   1.385       .  A
C2583      C2584   1.403       .  A
C2583      N2589   1.342       .  A
C2584      C2585   1.402       .  A
C2584      H2595   1.082       .  S
C2585      C2594   1.377       .  A
C2585      C2586   1.383       .  A
C2586      C2587   1.404       .  A
C2586      N2592   1.343       .  A
C2587      C2588   1.403       .  A
C2587      H2596   1.082       .  S
C2588      C2591   1.380       .  A
N2589      C2590   1.355       .  A
N2589      H2599   1.045       .  S
C2590      C2591   1.396       .  A
C2591      H2597   1.082       .  S
N2592      C2593   1.359       .  A
N2592      H2600   1.043       .  S
C2593      C2594   1.397       .  A
C2594      H2598   1.082       .  S
C2601      C2606   1.385       .  A
C2601      C2602   1.402       .  A
C2601      N2607   1.341       .  A
C2602      C2603   1.401   1_556  A
C2602      H2613   1.082       .  S
C2603      C2612   1.378       .  A
C2603      C2604   1.385       .  A
C2604      C2605   1.404   1_554  A
C2604      N2610   1.342       .  A
C2605      C2606   1.402       .  A
C2605      H2614   1.082       .  S
C2606      C2609   1.380       .  A
N2607      C2608   1.355       .  A
N2607      H2617   1.045       .  S
C2608      C2609   1.395       .  A
C2609      H2615   1.082       .  S
N2610      C2611   1.355       .  A
N2610      H2618   1.045       .  S
C2611      C2612   1.394       .  A
C2612      H2616   1.082       .  S
C2619      C2624   1.385       .  A
C2619      C2620   1.400       .  A
C2619      N2625   1.340       .  A
C2620      C2621   1.399   1_545  A
C2620      H2631   1.083       .  S
C2621      C2630   1.375       .  A
C2621      C2622   1.385       .  A
C2622      C2623   1.406   1_565  A
C2622      N2628   1.345       .  A
C2623      C2624   1.405       .  A
C2623      H2632   1.082       .  S
C2624      C2627   1.381       .  A
N2625      C2626   1.353       .  A
N2625      H2635   1.045       .  S
C2626      C2627   1.396       .  A
C2627      H2633   1.082       .  S
N2628      C2629   1.357       .  A
N2628      H2636   1.045       .  S
C2629      C2630   1.394       .  A
C2630      H2634   1.083       .  S
C2637      C2642   1.384       .  A
C2637      C2638   1.408       .  A
C2637      N2643   1.347       .  A
C2638      C2639   1.407       .  A
C2638      H2649   1.082       .  S
C2639      C2648   1.383       .  A
C2639      C2640   1.383       .  A
C2640      C2641   1.402       .  A
C2640      N2646   1.342       .  A
C2641      C2642   1.401       .  A
C2641      H2650   1.082       .  S
C2642      C2645   1.378       .  A
N2643      C2644   1.358       .  A
N2643      H2653   1.045       .  S
C2644      C2645   1.395       .  A
C2645      H2651   1.082       .  S
N2646      C2647   1.357       .  A
N2646      H2654   1.044       .  S
C2647      C2648   1.400       .  A
C2648      H2652   1.081       .  S
C2655      C2660   1.385       .  A
C2655      C2656   1.403   1_554  A
C2655      N2661   1.344       .  A
C2656      C2657   1.402       .  A
C2656      H2667   1.082       .  S
C2657      C2666   1.377       .  A
C2657      C2658   1.384       .  A
C2658      C2659   1.407       .  A
C2658      N2664   1.348       .  A
C2659      C2660   1.406   1_556  A
C2659      H2668   1.082       .  S
C2660      C2663   1.380       .  A
N2661      C2662   1.355       .  A
N2661      H2671   1.045       .  S
C2662      C2663   1.396       .  A
C2663      H2669   1.082       .  S
N2664      C2665   1.358       .  A
N2664      H2672   1.045       .  S
C2665      C2666   1.395       .  A
C2666      H2670   1.082       .  S
C2673      C2678   1.384       .  A
C2673      C2674   1.407       .  A
C2673      N2679   1.347       .  A
C2674      C2675   1.406       .  A
C2674      H2685   1.082       .  S
C2675      C2684   1.383       .  A
C2675      C2676   1.384       .  A
C2676      C2677   1.403       .  A
C2676      N2682   1.343       .  A
C2677      C2678   1.403       .  A
C2677      H2686   1.083       .  S
C2678      C2681   1.377       .  A
N2679      C2680   1.357       .  A
N2679      H2689   1.044       .  S
C2680      C2681   1.396       .  A
C2681      H2687   1.083       .  S
N2682      C2683   1.356       .  A
N2682      H2690   1.045       .  S
C2683      C2684   1.396       .  A
C2684      H2688   1.082       .  S
C2691      C2696   1.385       .  A
C2691      C2692   1.404   1_554  A
C2691      N2697   1.343       .  A
C2692      C2693   1.403       .  A
C2692      H2703   1.082       .  S
C2693      C2702   1.380       .  A
C2693      C2694   1.384       .  A
C2694      C2695   1.404       .  A
C2694      N2700   1.343       .  A
C2695      C2696   1.403   1_556  A
C2695      H2704   1.082       .  S
C2696      C2699   1.380       .  A
N2697      C2698   1.355       .  A
N2697      H2707   1.045       .  S
C2698      C2699   1.396       .  A
C2699      H2705   1.082       .  S
N2700      C2701   1.356       .  A
N2700      H2708   1.045       .  S
C2701      C2702   1.395       .  A
C2702      H2706   1.082       .  S
C2709      C2714   1.384       .  A
C2709      C2710   1.410       .  A
C2709      N2715   1.348       .  A
C2710      C2711   1.409       .  A
C2710      H2721   1.082       .  S
C2711      C2720   1.387       .  A
C2711      C2712   1.384       .  A
C2712      C2713   1.401       .  A
C2712      N2718   1.340       .  A
C2713      C2714   1.399       .  A
C2713      H2722   1.083       .  S
C2714      C2717   1.375       .  A
N2715      C2716   1.358       .  A
N2715      H2725   1.044       .  S
C2716      C2717   1.394       .  A
C2717      H2723   1.083       .  S
N2718      C2719   1.355       .  A
N2718      H2726   1.045       .  S
C2719      C2720   1.399       .  A
C2720      H2724   1.082       .  S
C2727      C2732   1.384       .  A
C2727      C2728   1.407       .  A
C2727      N2733   1.348       .  A
C2728      C2729   1.407   1_655  A
C2728      H2739   1.082       .  S
C2729      C2738   1.383       .  A
C2729      C2730   1.384       .  A
C2730      C2731   1.407   1_455  A
C2730      N2736   1.347       .  A
C2731      C2732   1.406       .  A
C2731      H2740   1.082       .  S
C2732      C2735   1.380       .  A
N2733      C2734   1.357       .  A
N2733      H2743   1.045       .  S
C2734      C2735   1.397       .  A
C2735      H2741   1.082       .  S
N2736      C2737   1.358       .  A
N2736      H2744   1.045       .  S
C2737      C2738   1.397       .  A
C2738      H2742   1.082       .  S
C2745      C2750   1.382       .  A
C2745      C2746   1.407       .  A
C2745      N2751   1.345       .  A
C2746      C2747   1.405       .  A
C2746      H2757   1.082       .  S
C2747      C2756   1.383       .  A
C2747      C2748   1.384       .  A
C2748      C2749   1.408       .  A
C2748      N2754   1.348       .  A
C2749      C2750   1.407       .  A
C2749      H2758   1.082       .  S
C2750      C2753   1.384       .  A
N2751      C2752   1.361       .  A
N2751      H2761   1.043       .  S
C2752      C2753   1.400       .  A
C2753      H2759   1.081       .  S
N2754      C2755   1.358       .  A
N2754      H2762   1.045       .  S
C2755      C2756   1.397       .  A
C2756      H2760   1.082       .  S
C2763      C2768   1.382       .  A
C2763      C2764   1.407       .  A
C2763      N2769   1.348       .  A
C2764      C2765   1.408       .  A
C2764      H2775   1.082       .  S
C2765      C2774   1.382       .  A
C2765      C2766   1.385       .  A
C2766      C2767   1.400       .  A
C2766      N2772   1.342       .  A
C2767      C2768   1.400       .  A
C2767      H2776   1.083       .  S
C2768      C2771   1.371       .  A
N2769      C2770   1.360       .  A
N2769      H2779   1.044       .  S
C2770      C2771   1.398       .  A
C2771      H2777   1.081       .  S
N2772      C2773   1.354       .  A
N2772      H2780   1.045       .  S
C2773      C2774   1.397       .  A
C2774      H2778   1.082       .  S
C2781      C2786   1.383       .  A
C2781      C2782   1.406       .  A
C2781      N2787   1.344       .  A
C2782      C2783   1.405       .  A
C2782      H2793   1.082       .  S
C2783      C2792   1.382       .  A
C2783      C2784   1.383       .  A
C2784      C2785   1.404       .  A
C2784      N2790   1.343       .  A
C2785      C2786   1.403       .  A
C2785      H2794   1.082       .  S
C2786      C2789   1.379       .  A
N2787      C2788   1.360       .  A
N2787      H2797   1.043       .  S
C2788      C2789   1.397       .  A
C2789      H2795   1.082       .  S
N2790      C2791   1.357       .  A
N2790      H2798   1.045       .  S
C2791      C2792   1.401       .  A
C2792      H2796   1.081       .  S
C2799      C2804   1.384       .  A
C2799      C2800   1.403       .  A
C2799      N2805   1.345       .  A
C2800      C2801   1.403       .  A
C2800      H2811   1.082       .  S
C2801      C2810   1.375       .  A
C2801      C2802   1.383       .  A
C2802      C2803   1.407       .  A
C2802      N2808   1.347       .  A
C2803      C2804   1.407       .  A
C2803      H2812   1.082       .  S
C2804      C2807   1.382       .  A
N2805      C2806   1.355       .  A
N2805      H2815   1.045       .  S
C2806      C2807   1.398       .  A
C2807      H2813   1.082       .  S
N2808      C2809   1.359       .  A
N2808      H2816   1.044       .  S
C2809      C2810   1.399       .  A
C2810      H2814   1.082       .  S
C2817      C2822   1.385       .  A
C2817      C2818   1.398       .  A
C2817      N2823   1.337       .  A
C2818      C2819   1.396       .  A
C2818      H2829   1.083       .  S
C2819      C2828   1.371       .  A
C2819      C2820   1.384       .  A
C2820      C2821   1.410       .  A
C2820      N2826   1.349       .  A
C2821      C2822   1.409       .  A
C2821      H2830   1.082       .  S
C2822      C2825   1.387       .  A
N2823      C2824   1.353       .  A
N2823      H2833   1.045       .  S
C2824      C2825   1.398       .  A
C2825      H2831   1.082       .  S
N2826      C2827   1.358       .  A
N2826      H2834   1.044       .  S
C2827      C2828   1.393       .  A
C2828      H2832   1.082       .  S
C2835      C2840   1.382       .  A
C2835      C2836   1.408       .  A
C2835      N2841   1.346       .  A
C2836      C2837   1.406       .  A
C2836      H2847   1.082       .  S
C2837      C2846   1.383       .  A
C2837      C2838   1.384       .  A
C2838      C2839   1.408       .  A
C2838      N2844   1.347       .  A
C2839      C2840   1.407       .  A
C2839      H2848   1.082       .  S
C2840      C2843   1.384       .  A
N2841      C2842   1.361       .  A
N2841      H2851   1.043       .  S
C2842      C2843   1.401       .  A
C2843      H2849   1.081       .  S
N2844      C2845   1.358       .  A
N2844      H2852   1.045       .  S
C2845      C2846   1.398       .  A
C2846      H2850   1.082       .  S
C2853      C2858   1.384       .  A
C2853      C2854   1.402       .  A
C2853      N2859   1.340       .  A
C2854      C2855   1.400       .  A
C2854      H2865   1.083       .  S
C2855      C2864   1.376       .  A
C2855      C2856   1.383       .  A
C2856      C2857   1.410       .  A
C2856      N2862   1.349       .  A
C2857      C2858   1.410       .  A
C2857      H2866   1.082       .  S
C2858      C2861   1.387       .  A
N2859      C2860   1.355       .  A
N2859      H2869   1.045       .  S
C2860      C2861   1.399       .  A
C2861      H2867   1.082       .  S
N2862      C2863   1.358       .  A
N2862      H2870   1.044       .  S
C2863      C2864   1.396       .  A
C2864      H2868   1.082       .  S
C2871      C2876   1.382       .  A
C2871      C2872   1.407       .  A
C2871      N2877   1.344       .  A
C2872      C2873   1.405       .  A
C2872      H2883   1.082       .  S
C2873      C2882   1.384       .  A
C2873      C2874   1.381       .  A
C2874      C2875   1.410       .  A
C2874      N2880   1.346       .  A
C2875      C2876   1.408       .  A
C2875      H2884   1.082       .  S
C2876      C2879   1.386       .  A
N2877      C2878   1.358       .  A
N2877      H2887   1.045       .  S
C2878      C2879   1.403       .  A
C2879      H2885   1.082       .  S
N2880      C2881   1.362       .  A
N2880      H2888   1.044       .  S
C2881      C2882   1.400       .  A
C2882      H2886   1.082       .  S
C2889      C2894   1.382       .  A
C2889      C2890   1.402       .  A
C2889      N2895   1.341       .  A
C2890      C2891   1.401       .  A
C2890      H2901   1.082       .  S
C2891      C2900   1.378       .  A
C2891      C2892   1.384       .  A
C2892      C2893   1.410       .  A
C2892      N2898   1.348       .  A
C2893      C2894   1.409       .  A
C2893      H2902   1.082       .  S
C2894      C2897   1.385       .  A
N2895      C2896   1.358       .  A
N2895      H2905   1.043       .  S
C2896      C2897   1.401       .  A
C2897      H2903   1.082       .  S
N2898      C2899   1.359       .  A
N2898      H2906   1.045       .  S
C2899      C2900   1.394       .  A
C2900      H2904   1.082       .  S
C2907      C2912   1.382       .  A
C2907      C2908   1.410       .  A
C2907      N2913   1.348       .  A
C2908      C2909   1.410   1_556  A
C2908      H2919   1.082       .  S
C2909      C2918   1.384       .  A
C2909      C2910   1.382       .  A
C2910      C2911   1.405       .  A
C2910      N2916   1.345       .  A
C2911      C2912   1.404   1_554  A
C2911      H2920   1.082       .  S
C2912      C2915   1.380       .  A
N2913      C2914   1.362       .  A
N2913      H2923   1.043       .  S
C2914      C2915   1.399       .  A
C2915      H2921   1.082       .  S
N2916      C2917   1.358       .  A
N2916      H2924   1.044       .  S
C2917      C2918   1.404       .  A
C2918      H2922   1.081       .  S
C2925      C2930   1.383       .  A
C2925      C2926   1.403       .  A
C2925      N2931   1.343       .  A
C2926      C2927   1.402       .  A
C2926      H2937   1.082       .  S
C2927      C2936   1.378       .  A
C2927      C2928   1.384       .  A
C2928      C2929   1.408       .  A
C2928      N2934   1.347       .  A
C2929      C2930   1.408       .  A
C2929      H2938   1.082       .  S
C2930      C2933   1.383       .  A
N2931      C2932   1.357       .  A
N2931      H2941   1.045       .  S
C2932      C2933   1.402       .  A
C2933      H2939   1.081       .  S
N2934      C2935   1.358       .  A
N2934      H2942   1.045       .  S
C2935      C2936   1.394       .  A
C2936      H2940   1.082       .  S
C2943      C2948   1.383       .  A
C2943      C2944   1.403       .  A
C2943      N2949   1.342       .  A
C2944      C2945   1.401       .  A
C2944      H2955   1.082       .  S
C2945      C2954   1.379       .  A
C2945      C2946   1.383       .  A
C2946      C2947   1.411       .  A
C2946      N2952   1.348       .  A
C2947      C2948   1.410       .  A
C2947      H2956   1.082       .  S
C2948      C2951   1.388       .  A
N2949      C2950   1.357       .  A
N2949      H2959   1.044       .  S
C2950      C2951   1.401       .  A
C2951      H2957   1.082       .  S
N2952      C2953   1.359       .  A
N2952      H2960   1.044       .  S
C2953      C2954   1.394       .  A
C2954      H2958   1.082       .  S
C2961      C2966   1.382       .  A
C2961      C2962   1.407       .  A
C2961      N2967   1.342       .  A
C2962      C2963   1.404       .  A
C2962      H2973   1.082       .  S
C2963      C2972   1.383       .  A
C2963      C2964   1.381       .  A
C2964      C2965   1.409       .  A
C2964      N2970   1.345       .  A
C2965      C2966   1.406       .  A
C2965      H2974   1.082       .  S
C2966      C2969   1.387       .  A
N2967      C2968   1.359       .  A
N2967      H2977   1.045       .  S
C2968      C2969   1.400       .  A
C2969      H2975   1.081       .  S
N2970      C2971   1.361       .  A
N2970      H2978   1.043       .  S
C2971      C2972   1.400       .  A
C2972      H2976   1.081       .  S
C2979      C2984   1.383       .  A
C2979      C2980   1.400       .  A
C2979      N2985   1.339       .  A
C2980      C2981   1.398       .  A
C2980      H2991   1.082       .  S
C2981      C2990   1.375       .  A
C2981      C2982   1.384       .  A
C2982      C2983   1.408       .  A
C2982      N2988   1.346       .  A
C2983      C2984   1.407       .  A
C2983      H2992   1.082       .  S
C2984      C2987   1.383       .  A
N2985      C2986   1.356       .  A
N2985      H2995   1.043       .  S
C2986      C2987   1.401       .  A
C2987      H2993   1.081       .  S
N2988      C2989   1.358       .  A
N2988      H2996   1.045       .  S
C2989      C2990   1.392       .  A
C2990      H2994   1.082       .  S
C2997      C3002   1.382       .  A
C2997      C2998   1.404   1_554  A
C2997      N3003   1.343       .  A
C2998      C2999   1.403       .  A
C2998      H3009   1.082       .  S
C2999      C3008   1.378       .  A
C2999      C3000   1.382       .  A
C3000      C3001   1.403       .  A
C3000      N3006   1.343       .  A
C3001      C3002   1.402   1_556  A
C3001      H3010   1.082       .  S
C3002      C3005   1.376       .  A
N3003      C3004   1.358       .  A
N3003      H3013   1.043       .  S
C3004      C3005   1.399       .  A
C3005      H3011   1.082       .  S
N3006      C3007   1.359       .  A
N3006      H3014   1.044       .  S
C3007      C3008   1.398       .  A
C3008      H3012   1.081       .  S
C3015      C3020   1.386       .  A
C3015      C3016   1.394       .  A
C3015      N3021   1.335       .  A
C3016      C3017   1.393       .  A
C3016      H3027   1.083       .  S
C3017      C3026   1.364       .  A
C3017      C3018   1.385       .  A
C3018      C3019   1.406       .  A
C3018      N3024   1.346       .  A
C3019      C3020   1.406       .  A
C3019      H3028   1.082       .  S
C3020      C3023   1.382       .  A
N3021      C3022   1.351       .  A
N3021      H3031   1.045       .  S
C3022      C3023   1.395       .  A
C3023      H3029   1.082       .  S
N3024      C3025   1.355       .  A
N3024      H3032   1.045       .  S
C3025      C3026   1.390       .  A
C3026      H3030   1.083       .  S
C3033      C3038   1.382       .  A
C3033      C3034   1.404       .  A
C3033      N3039   1.341       .  A
C3034      C3035   1.401       .  A
C3034      H3045   1.082       .  S
C3035      C3044   1.379       .  A
C3035      C3036   1.383       .  A
C3036      C3037   1.411       .  A
C3036      N3042   1.348       .  A
C3037      C3038   1.410       .  A
C3037      H3046   1.082       .  S
C3038      C3041   1.388       .  A
N3039      C3040   1.359       .  A
N3039      H3049   1.043       .  S
C3040      C3041   1.403       .  A
C3041      H3047   1.082       .  S
N3042      C3043   1.359       .  A
N3042      H3050   1.044       .  S
C3043      C3044   1.395       .  A
C3044      H3048   1.082       .  S
C3051      C3056   1.382       .  A
C3051      C3052   1.407       .  A
C3051      N3057   1.347       .  A
C3052      C3053   1.407       .  A
C3052      H3063   1.082       .  S
C3053      C3062   1.380       .  A
C3053      C3054   1.382       .  A
C3054      C3055   1.408       .  A
C3054      N3060   1.349       .  A
C3055      C3056   1.408       .  A
C3055      H3064   1.082       .  S
C3056      C3059   1.383       .  A
N3057      C3058   1.361       .  A
N3057      H3067   1.044       .  S
C3058      C3059   1.401       .  A
C3059      H3065   1.081       .  S
N3060      C3061   1.360       .  A
N3060      H3068   1.043       .  S
C3061      C3062   1.403       .  A
C3062      H3066   1.081       .  S
C3069      C3074   1.385       .  A
C3069      C3070   1.401       .  A
C3069      N3075   1.344       .  A
C3070      C3071   1.401       .  A
C3070      H3081   1.082       .  S
C3071      C3080   1.373       .  A
C3071      C3072   1.385       .  A
C3072      C3073   1.402       .  A
C3072      N3078   1.344       .  A
C3073      C3074   1.403       .  A
C3073      H3082   1.082       .  S
C3074      C3077   1.374       .  A
N3075      C3076   1.354       .  A
N3075      H3085   1.045       .  S
C3076      C3077   1.397       .  A
C3077      H3083   1.082       .  S
N3078      C3079   1.355       .  A
N3078      H3086   1.045       .  S
C3079      C3080   1.395       .  A
C3080      H3084   1.082       .  S
C3087      C3092   1.383       .  A
C3087      C3088   1.404       .  A
C3087      N3093   1.346       .  A
C3088      C3089   1.403       .  A
C3088      H3099   1.082       .  S
C3089      C3098   1.378       .  A
C3089      C3090   1.383       .  A
C3090      C3091   1.405       .  A
C3090      N3096   1.343       .  A
C3091      C3092   1.404       .  A
C3091      H3100   1.083       .  S
C3092      C3095   1.377       .  A
N3093      C3094   1.357       .  A
N3093      H3103   1.044       .  S
C3094      C3095   1.400       .  A
C3095      H3101   1.082       .  S
N3096      C3097   1.358       .  A
N3096      H3104   1.045       .  S
C3097      C3098   1.398       .  A
C3098      H3102   1.081       .  S
