geometry optimzed in LAMMPS
_audit_creation_date              2020-11-30 
_audit_creation_method            'lammps2cif' 
_symmetry_space_group_name_H-M    'P1' 
_symmetry_Int_Tables_number       1 
_symmetry_cell_setting            triclinic 
loop_ 
_symmetry_equiv_pos_as_xyz 
  x,y,z 
_cell_length_a                    24.54117277 
_cell_length_b                    25.84507508215832 
_cell_length_c                    24.988594941341127 
_cell_angle_alpha                 89.68679156326887 
_cell_angle_beta                  91.23980727787584 
_cell_angle_gamma                 87.85713723002017 
loop_ 
_atom_site_label 
_atom_site_type_symbol 
_atom_site_fract_x 
_atom_site_fract_y 
_atom_site_fract_z 
_atom_site_charge 
C1          C  0.32231431  0.35339696  0.17084053    -0.01700
C2          C  0.28470845  0.07067951  0.43870196    -0.01700
C3          C  0.05727936  0.08904977  0.16153698    -0.01700
C4          C  0.07795581  0.37555206  0.42785396    -0.01700
C5          C  0.30662320  0.08127016  0.65020209    -0.01700
C6          C  0.07914396  0.08779683  0.93887732    -0.01700
C7          C  0.05858218  0.36969273  0.67074208    -0.01700
C8          C  0.31706213  0.33303733  0.93954674    -0.01700
O9          O  0.37093567  0.37165337  0.08717471    -0.79400
O10         O  0.39491685  0.57741709  0.98418128    -0.79400
O11         O  0.39095411  0.51529112  0.15741629    -0.79400
O12         O  0.36330538  0.41000237  0.95544950    -0.79400
O13         O  0.35839661  0.54448507  0.08250249    -0.79500
O14         O  0.40539600  0.34148976  0.99053872    -0.79400
O15         O  0.35765156  0.50931753  0.95258971    -0.79400
O16         O  0.40083842  0.40836479  0.15814572    -0.79400
C17         C  0.36827989  0.37729327  0.13725121     1.10300
C18         C  0.36194230  0.55743991  0.95079660     1.10200
C19         C  0.35685198  0.54513554  0.13331687     1.10300
C20         C  0.36667268  0.36172903  0.96114620     1.10200
O21         O  0.51220826  0.38531920  0.01059572    -0.79400
O22         O  0.45184290  0.59839969  0.08428831    -0.79500
O23         O  0.50668441  0.40890567  0.11144741    -0.79400
O24         O  0.47600102  0.51326623  0.93144953    -0.79400
O25         O  0.50409854  0.53843219  0.01017187    -0.79400
O26         O  0.47682206  0.33010967  0.09479147    -0.79400
O27         O  0.47734716  0.40282836  0.93187900    -0.79400
O28         O  0.49629117  0.52648587  0.11410929    -0.79400
Co29       Co  0.44118767  0.38435404  0.05013612     1.51500
Co30       Co  0.43082956  0.53679199  0.04743414     1.51700
Co31       Co  0.44568846  0.46398868  0.12361441     1.51600
Co32       Co  0.41996595  0.45932294  0.95090568     1.51500
O33         O  0.42037998  0.46038337  0.03602906    -1.41300
C34         C  0.51425157  0.37969162  0.96028339     1.10200
C35         C  0.48895535  0.57727359  0.11444260     1.10300
C36         C  0.50953887  0.35893589  0.12077957     1.10300
C37         C  0.51031672  0.53759396  0.95967132     1.10200
C38         C  0.32098390  0.58776608  0.16234971    -0.01700
C39         C  0.04976457  0.83791819  0.15692795    -0.01700
C40         C  0.01990391  0.59979159  0.42553760    -0.01700
C41         C  0.30113677  0.83356135  0.44621892    -0.01700
O42         O  0.31454847  0.01185994  0.51376738    -0.79400
O43         O  0.54419212  0.91333273  0.51330554    -0.79400
O44         O  0.48754947  0.04818286  0.46835474    -0.79400
O45         O  0.38378011  0.83337287  0.50903520    -0.79400
O46         O  0.55371293  0.01856694  0.52124554    -0.79500
O47         O  0.34490668  0.90927816  0.49018560    -0.79400
O48         O  0.47063345  0.88835689  0.46891258    -0.79400
O49         O  0.37862312  0.04845630  0.46805007    -0.79400
C50         C  0.32861892  0.04213267  0.47554829     1.10300
C51         C  0.52245808  0.89080721  0.47280672     1.10200
C52         C  0.53765830  0.04375767  0.47879514     1.10300
C53         C  0.34570031  0.85916312  0.48383864     1.10200
O54         O  0.30088590  0.92147503  0.59058304    -0.79400
O55         O  0.50110049  0.01113517  0.63022334    -0.79500
O56         O  0.37551495  0.07763664  0.57924806    -0.79400
O57         O  0.48715984  0.84677117  0.57568679    -0.79400
O58         O  0.50433108  0.91057908  0.62652850    -0.79400
O59         O  0.36138830  0.00453246  0.62075587    -0.79400
O60         O  0.38189181  0.88441376  0.60739071    -0.79400
O61         O  0.49459970  0.07998748  0.58225716    -0.79400
Co62       Co  0.36087723  0.95675437  0.55729806     1.51500
Co63       Co  0.51987807  0.96388453  0.57119372     1.51700
Co64       Co  0.43446291  0.05546944  0.52650359     1.51600
Co65       Co  0.42553120  0.89248476  0.53576820     1.51500
O66         O  0.44062775  0.97290687  0.54223768    -1.41300
C67         C  0.33025676  0.88868024  0.61836211     1.10200
C68         C  0.51398978  0.05704970  0.62475679     1.10300
C69         C  0.35144152  0.05331272  0.61565498     1.10300
C70         C  0.51330850  0.86335944  0.61691989     1.10200
C71         C  0.56165873  0.34639239  0.93450107    -0.01700
C72         C  0.80965584  0.34493905  0.64680773    -0.01700
C73         C  0.56460662  0.07491326  0.65922702    -0.01700
C74         C  0.79839273  0.06759652  0.92782423    -0.01700
C75         C  0.33246703  0.58711104  0.90382573    -0.01700
C76         C  0.30697818  0.85863675  0.66740384    -0.01700
C77         C  0.04176257  0.57595898  0.66556669    -0.01700
C78         C  0.03517883  0.85377279  0.90120589    -0.01700
C79         C  0.56273479  0.86471992  0.43276407    -0.01700
C80         C  0.78622875  0.57219662  0.40873948    -0.01700
C81         C  0.53221402  0.60992222  0.14219645    -0.01700
C82         C  0.78982004  0.85715342  0.14186192    -0.01700
C83         C  0.56234210  0.56077447  0.93350540    -0.01700
C84         C  0.79380772  0.55103450  0.66240063    -0.01700
C85         C  0.56119914  0.83245307  0.64956212    -0.01700
C86         C  0.81246317  0.83064444  0.93345168    -0.01700
O87         O  0.99814032  0.07905435  0.99231586    -0.79400
O88         O  0.88684855  0.83308060  0.00631021    -0.79400
O89         O  0.04420847  0.89946548  0.99026079    -0.79400
O90         O  0.82616177  0.01017129  0.00354367    -0.79400
O91         O  0.96209176  0.88938601  0.95991748    -0.79500
O92         O  0.89128753  0.05351568  0.96621768    -0.79400
O93         O  0.85562146  0.90843027  0.97696287    -0.79400
O94         O  0.04480086  0.00713547  0.97458446    -0.79400
C95         C  0.03637930  0.05585247  0.96813049     1.10300
C96         C  0.85464005  0.85786092  0.97331705     1.10200
C97         C  0.01258176  0.88066322  0.95437455     1.10300
C98         C  0.84186864  0.04116105  0.96656080     1.10200
O99         O  0.86801373  0.06760244  0.07992464    -0.79400
O100        O  0.98702511  0.85526648  0.07611118    -0.79500
O101        O  0.04785924  0.02495914  0.09050665    -0.79400
O102        O  0.80328060  0.92158109  0.07194360    -0.79400
O103        O  0.87959472  0.88581219  0.10308190    -0.79400
O104        O  0.97455493  0.07439110  0.10436498    -0.79400
O105        O  0.86728698  0.99330123  0.11921282    -0.79400
O106        O  0.03333953  0.92024003  0.10809881    -0.79400
Co107      Co  0.93429936  0.05819959  0.03527345     1.51500
Co108      Co  0.92496073  0.89534924  0.03183719     1.51700
Co109      Co  0.03396840  0.96345574  0.04073880     1.51600
Co110      Co  0.86863144  0.95330862  0.04785053     1.51500
O111        O  0.94812344  0.97437681  0.03806262    -1.41300
C112        C  0.85454446  0.04147530  0.12008594     1.10200
C113        C  0.02086501  0.87315745  0.11148413     1.10300
C114        C  0.02374464  0.06208337  0.11589347     1.10300
C115        C  0.82654248  0.88933032  0.10463932     1.10200
C116        C  0.57824293  0.07445844  0.44482635    -0.01700
C117        C  0.81079656  0.06530459  0.15895042    -0.01700
C118        C  0.55850938  0.33753108  0.15509334    -0.01700
C119        C  0.79096083  0.35556348  0.42105575    -0.01700
O120        O  0.98386939  0.39955296  0.44604891    -0.79400
O121        O  0.89686069  0.38232644  0.61107291    -0.79400
O122        O  0.01457094  0.41360926  0.59157176    -0.79400
O123        O  0.80744601  0.43054345  0.47745067    -0.79400
O124        O  0.97647933  0.42790317  0.66959661    -0.79500
O125        O  0.87824976  0.39294885  0.43857876    -0.79400
O126        O  0.81910653  0.42172649  0.58817828    -0.79400
O127        O  0.04402051  0.44517337  0.48930627    -0.79400
C128        C  0.03273101  0.40833399  0.45640147     1.10300
C129        C  0.84488189  0.38364472  0.61259249     1.10200
C130        C  0.01343882  0.40445903  0.64288386     1.10300
C131        C  0.82827825  0.39452086  0.44813326     1.10200
O132        O  0.86086281  0.50244961  0.41130990    -0.79400
O133        O  0.96979154  0.52512604  0.61944013    -0.79500
O134        O  0.98848981  0.54754158  0.50227764    -0.79400
O135        O  0.85399038  0.53309989  0.58825727    -0.79400
O136        O  0.87149342  0.48334912  0.65446393    -0.79400
O137        O  0.97737458  0.51276594  0.42327089    -0.79400
O138        O  0.84109197  0.54123499  0.48512740    -0.79400
O139        O  0.05191363  0.51574117  0.58659491    -0.79400
Co140      Co  0.92487972  0.45334431  0.43857072     1.51500
Co141      Co  0.93414127  0.45193252  0.60769234     1.51700
Co142      Co  0.99447190  0.48130838  0.54592726     1.51600
Co143      Co  0.83595883  0.48065571  0.53395613     1.51500
O144        O  0.91688703  0.46113350  0.52417647    -1.41300
C145        C  0.83428381  0.53851105  0.43526895     1.10200
C146        C  0.02036691  0.53896584  0.61983946     1.10300
C147        C  0.99485878  0.54994863  0.45180483     1.10300
C148        C  0.84425798  0.52266062  0.63605984     1.10200
C149        C  0.65640028  0.41886217  0.22802805     0.16700
C150        C  0.70841787  0.41631866  0.25175361    -0.32300
C151        C  0.71156934  0.41115652  0.30732979     0.21100
C152        C  0.66536934  0.40789737  0.33738379     0.03300
C153        C  0.61332511  0.41159513  0.31404242    -0.22100
C154        C  0.61007057  0.41660208  0.25847840     0.12500
S155        S  0.64458764  0.41258005  0.16170625    -0.05700
C156        C  0.58336823  0.38733572  0.17886339    -0.09200
C157        C  0.56555209  0.40551687  0.22810619    -0.25800
S158        S  0.67812823  0.39464092  0.40235915    -0.03000
C159        C  0.74726003  0.38950789  0.38958102    -0.16400
C160        C  0.75822833  0.40551968  0.33761387    -0.14400
H161        H  0.74473112  0.41593697  0.22785794     0.20900
H162        H  0.57735597  0.40622863  0.33753191     0.17000
H163        H  0.52735391  0.39522329  0.24558860     0.19500
H164        H  0.79849496  0.40465445  0.32061853     0.12800
C165        C  0.67557637  0.24442166  0.11135190     0.16700
C166        C  0.72638067  0.22033998  0.10493260    -0.32300
C167        C  0.72815856  0.16695970  0.09946444     0.21100
C168        C  0.68213174  0.13856595  0.10482173     0.03300
C169        C  0.63025577  0.16301145  0.10872009    -0.22100
C170        C  0.62827860  0.21734132  0.11047236     0.12500
S171        S  0.66670155  0.30790665  0.12112022    -0.05700
C172        C  0.59688958  0.30126170  0.12287545    -0.09200
C173        C  0.58291975  0.24981417  0.11327722    -0.25800
S174        S  0.69683572  0.07465625  0.11354651    -0.03000
C175        C  0.76608822  0.08788995  0.11802713    -0.16400
C176        C  0.77489216  0.13724881  0.09811659    -0.14400
H177        H  0.76317313  0.24223721  0.10519871     0.20900
H178        H  0.59379485  0.14097782  0.11189855     0.17000
H179        H  0.54190592  0.23599292  0.11459471     0.19500
H180        H  0.81452671  0.15443127  0.09831129     0.12800
C181        C  0.85232734  0.24495715  0.32457941     0.16700
C182        C  0.87924685  0.20265585  0.29759805    -0.32300
C183        C  0.84783748  0.17261115  0.26114648     0.21100
C184        C  0.79225874  0.18214139  0.25795066     0.03300
C185        C  0.76568993  0.22090613  0.28613428    -0.22100
C186        C  0.79674592  0.25225735  0.31809825     0.12500
S187        S  0.87927758  0.29009885  0.36864197    -0.05700
C188        C  0.81382066  0.31775081  0.37708897    -0.09200
C189        C  0.77523708  0.29111336  0.34758595    -0.25800
S190        S  0.75790432  0.14221542  0.21948073    -0.03000
C191        C  0.81864025  0.11391046  0.19663115    -0.16400
C192        C  0.86354190  0.13167561  0.22665013    -0.14400
H193        H  0.92166831  0.19290103  0.30545512     0.20900
H194        H  0.72185497  0.22696296  0.28245632     0.17000
H195        H  0.73154119  0.29843678  0.34959743     0.19500
H196        H  0.90366624  0.11331419  0.22564220     0.12800
C197        C  0.57527225  0.24596305  0.27799231     0.16700
C198        C  0.60015977  0.21837056  0.31955689    -0.32300
C199        C  0.57173214  0.17886562  0.34177663     0.21100
C200        C  0.51977889  0.16703780  0.32574593     0.03300
C201        C  0.49579726  0.19298742  0.28006953    -0.22100
C202        C  0.52480081  0.23398024  0.25699182     0.12500
S203        S  0.60666247  0.29316827  0.24707698    -0.05700
C204        C  0.55004376  0.30254683  0.20475309    -0.09200
C205        C  0.51072974  0.26556222  0.21298964    -0.25800
S206        S  0.49333735  0.11889398  0.36570557    -0.03000
C207        C  0.55492060  0.11499305  0.40220894    -0.16400
C208        C  0.59259773  0.14766480  0.38032253    -0.14400
H209        H  0.64049839  0.22749018  0.33438493     0.20900
H210        H  0.45674433  0.18220152  0.26366326     0.17000
H211        H  0.47589412  0.26035359  0.18663612     0.19500
H212        H  0.63524143  0.14825007  0.39190904     0.12800
C213        C  0.74333589  0.23006090  0.47931135     0.16700
C214        C  0.73504808  0.17705883  0.48318047    -0.32300
C215        C  0.68120139  0.16199755  0.48856908     0.21100
C216        C  0.63805920  0.19757972  0.49126684     0.03300
C217        C  0.64646592  0.25052367  0.48765672    -0.22100
C218        C  0.70017132  0.26555240  0.48152649     0.12500
S219        S  0.80470047  0.25726606  0.47278418    -0.05700
C220        C  0.77061083  0.31737648  0.46366670    -0.09200
C221        C  0.71664464  0.31498081  0.47813190    -0.25800
S222        S  0.57636418  0.17069564  0.49783394    -0.03000
C223        C  0.60796145  0.11035360  0.48490759    -0.16400
C224        C  0.66441909  0.11254153  0.48988982    -0.14400
H225        H  0.76874348  0.14890450  0.48133439     0.20900
H226        H  0.61279618  0.27870637  0.48950158     0.17000
H227        H  0.69004937  0.34746194  0.48760760     0.19500
H228        H  0.69298786  0.08084394  0.49618036     0.12800
C229        C  0.65291293  0.02779248  0.32061623     0.16700
C230        C  0.66562257  0.02308703  0.26702465    -0.32300
C231        C  0.72050895  0.02075991  0.25443385     0.21100
C232        C  0.76144998  0.02430024  0.29262500     0.03300
C233        C  0.74869243  0.02741939  0.34725221    -0.22100
C234        C  0.69285970  0.02905296  0.36008685     0.12500
S235        S  0.58878436  0.02847650  0.34307776    -0.05700
C236        C  0.61358268  0.03819296  0.40808106    -0.09200
C237        C  0.67060795  0.03098694  0.41006484    -0.25800
S238        S  0.82491526  0.02387090  0.26540013    -0.03000
C239        C  0.79372355  0.02535899  0.20114877    -0.16400
C240        C  0.73979898  0.01380453  0.20459211    -0.14400
H241        H  0.63399541  0.02060139  0.23633282     0.20900
H242        H  0.78035407  0.02904189  0.37795744     0.17000
H243        H  0.69514081  0.02230859  0.44517962     0.19500
H244        H  0.71503660  0.00015780  0.17223242     0.12800
C245        C  0.74195599  0.88674419  0.80812419     0.16700
C246        C  0.72682412  0.88510651  0.75347282    -0.32300
C247        C  0.67085778  0.88232984  0.74006816     0.21100
C248        C  0.63202645  0.88242340  0.77891294     0.03300
C249        C  0.64703917  0.88400058  0.83353593    -0.22100
C250        C  0.70301829  0.88560113  0.84695990     0.12500
S251        S  0.80724278  0.88829421  0.83402988    -0.05700
C252        C  0.78238725  0.87464800  0.89783237    -0.09200
C253        C  0.72622694  0.88503324  0.89759527    -0.25800
S254        S  0.56699075  0.88154561  0.75344052    -0.03000
C255        C  0.59216178  0.87003883  0.68922036    -0.16400
C256        C  0.64789628  0.88005866  0.68942771    -0.14400
H257        H  0.75726891  0.88558016  0.72279641     0.20900
H258        H  0.61655758  0.88344930  0.86419150     0.17000
H259        H  0.70328919  0.89482281  0.93246991     0.19500
H260        H  0.67157113  0.88759659  0.65474676     0.12800
C261        C  0.68286924  0.63623630  0.59306098     0.16700
C262        C  0.63099683  0.66147524  0.59303507    -0.32300
C263        C  0.62916198  0.71587446  0.59536446     0.21100
C264        C  0.67662985  0.74273858  0.59800375     0.03300
C265        C  0.72809308  0.71750102  0.59834245    -0.22100
C266        C  0.73006855  0.66350669  0.59552638     0.12500
S267        S  0.69500003  0.57138922  0.59394691    -0.05700
C268        C  0.76163054  0.58124970  0.61528862    -0.09200
C269        C  0.77592569  0.63172996  0.60219686    -0.25800
S270        S  0.66636641  0.80741835  0.60254160    -0.03000
C271        C  0.59696558  0.80016319  0.60913993    -0.16400
C272        C  0.58344137  0.74868692  0.59676683    -0.14400
H273        H  0.59407791  0.63981658  0.59178913     0.20900
H274        H  0.76497002  0.73900940  0.60213778     0.17000
H275        H  0.81567475  0.64685598  0.61109628     0.19500
H276        H  0.54258920  0.73445104  0.59919942     0.12800
C277        C  0.78581024  0.66481930  0.76390753     0.16700
C278        C  0.76756580  0.70961948  0.78889728    -0.32300
C279        C  0.80243261  0.73156331  0.82594502     0.21100
C280        C  0.85107379  0.70837218  0.84194740     0.03300
C281        C  0.86781146  0.66037621  0.81874135    -0.22100
C282        C  0.83633083  0.64173552  0.77512308     0.12500
S283        S  0.74772696  0.63420766  0.71919053    -0.05700
C284        C  0.80402290  0.59463694  0.70392475    -0.09200
C285        C  0.84770629  0.60082890  0.74017501    -0.25800
S286        S  0.88233753  0.74274928  0.89262691    -0.03000
C287        C  0.83080933  0.79054939  0.88947816    -0.16400
C288        C  0.79019370  0.77501150  0.85313841    -0.14400
H289        H  0.72805210  0.72760776  0.77880371     0.20900
H290        H  0.90198263  0.63774647  0.83485016     0.17000
H291        H  0.88417385  0.57614242  0.74168567     0.19500
H292        H  0.74958758  0.79217225  0.84995661     0.12800
C293        C  0.58148236  0.65499785  0.81187183     0.16700
C294        C  0.60535854  0.68459886  0.77278458    -0.32300
C295        C  0.57333771  0.72432348  0.74914413     0.21100
C296        C  0.52144464  0.73639905  0.76491471     0.03300
C297        C  0.50047422  0.70960815  0.80839201    -0.22100
C298        C  0.52908204  0.66516798  0.82826855     0.12500
S299        S  0.61549933  0.60937196  0.84775502    -0.05700
C300        C  0.55597310  0.59557538  0.88167004    -0.09200
C301        C  0.51356266  0.63064915  0.86758980    -0.25800
S302        S  0.49021375  0.78681940  0.72897255    -0.03000
C303        C  0.54713181  0.78982970  0.69053427    -0.16400
C304        C  0.58947009  0.75676907  0.71097806    -0.14400
H305        H  0.64693729  0.67674267  0.76101833     0.20900
H306        H  0.46688583  0.72574974  0.82882475     0.17000
H307        H  0.47671907  0.63420347  0.88964779     0.19500
H308        H  0.63136679  0.75654393  0.69850547     0.12800
C309        C  0.68233947  0.49912862  0.75233116     0.16700
C310        C  0.63176404  0.49587431  0.77606575    -0.32300
C311        C  0.63132575  0.49317777  0.83169363     0.21100
C312        C  0.67884840  0.49624822  0.86186885     0.03300
C313        C  0.72991681  0.49838176  0.83782958    -0.22100
C314        C  0.73032966  0.49911962  0.78179032     0.12500
S315        S  0.69034350  0.50542728  0.68655288    -0.05700
C316        C  0.75964978  0.51372759  0.69635379    -0.09200
C317        C  0.77489191  0.50322149  0.74991986    -0.25800
S318        S  0.66748068  0.50371415  0.92778187    -0.03000
C319        C  0.59820699  0.51392594  0.91325025    -0.16400
C320        C  0.58555465  0.49598137  0.86205427    -0.14400
H321        H  0.59431613  0.49665808  0.75227542     0.20900
H322        H  0.76711008  0.50128376  0.86153163     0.17000
H323        H  0.81584194  0.50638839  0.76613237     0.19500
H324        H  0.54504944  0.49972234  0.84391737     0.12800
C325        C  0.62808731  0.68509579  0.96969448     0.16700
C326        C  0.64219813  0.73668728  0.96460863    -0.32300
C327        C  0.69774719  0.74717212  0.96800093     0.21100
C328        C  0.73709435  0.70847764  0.97585380     0.03300
C329        C  0.72307508  0.65676986  0.98111784    -0.22100
C330        C  0.66748474  0.64633987  0.97777095     0.12500
S331        S  0.56339663  0.66412980  0.97081180    -0.05700
C332        C  0.58963641  0.60027885  0.97154840    -0.09200
C333        C  0.64522906  0.59925468  0.98408266    -0.25800
S334        S  0.80104143  0.73047720  0.98152362    -0.03000
C335        C  0.77606026  0.79364168  0.96639412    -0.16400
C336        C  0.71903075  0.79505836  0.96647921    -0.14400
H337        H  0.61126407  0.76738805  0.95936089     0.20900
H338        H  0.75384941  0.62627779  0.98834779     0.17000
H339        H  0.66855965  0.56688900  0.00105063     0.19500
H340        H  0.69183916  0.82791005  0.96837723     0.12800
C341        C  0.59865788  0.72947581  0.08830544     0.16700
C342        C  0.61605653  0.78073866  0.08526525    -0.32300
C343        C  0.67278240  0.78738656  0.08823751     0.21100
C344        C  0.70861739  0.74529786  0.09315516     0.03300
C345        C  0.69158716  0.69528718  0.09481296    -0.22100
C346        C  0.63615246  0.68876523  0.09207632     0.12500
S347        S  0.53335438  0.70936220  0.08854723    -0.05700
C348        C  0.55867083  0.64552065  0.10071492    -0.09200
C349        C  0.61360525  0.64241021  0.09245283    -0.25800
S350        S  0.77395517  0.75906695  0.09670299    -0.03000
C351        C  0.75484879  0.82372575  0.10367338    -0.16400
C352        C  0.70017907  0.83270290  0.08875945    -0.14400
H353        H  0.58723361  0.81341449  0.08241704     0.20900
H354        H  0.72048141  0.66261174  0.09845213     0.17000
H355        H  0.63770050  0.60851186  0.08422948     0.19500
H356        H  0.68147607  0.86967813  0.07770733     0.12800
C357        C  0.66385014  0.52665559  0.32955714     0.16700
C358        C  0.61049508  0.53301764  0.30885934    -0.32300
C359        C  0.60452726  0.53916687  0.25338007     0.21100
C360        C  0.64926174  0.53721451  0.22089035     0.03300
C361        C  0.70226351  0.53169553  0.24160578    -0.22100
C362        C  0.70829624  0.52674516  0.29685809     0.12500
S363        S  0.68119713  0.52206242  0.39501754    -0.05700
C364        C  0.74809734  0.53401321  0.37913651    -0.09200
C365        C  0.75651256  0.52462488  0.32490739    -0.25800
S366        S  0.63448499  0.54748474  0.15600877    -0.03000
C367        C  0.56980954  0.56867884  0.17323358    -0.16400
C368        C  0.55780249  0.55340991  0.22546328    -0.14400
H369        H  0.57574739  0.53527649  0.33482816     0.20900
H370        H  0.73722227  0.53243577  0.21593347     0.17000
H371        H  0.79538173  0.52717072  0.30564306     0.19500
H372        H  0.51921755  0.56163249  0.24448006     0.12800
C373        C  0.77480637  0.68455880  0.30448371     0.16700
C374        C  0.75564384  0.72969236  0.28039720    -0.32300
C375        C  0.78891273  0.75276668  0.24423838     0.21100
C376        C  0.83750972  0.73126963  0.22818033     0.03300
C377        C  0.85439473  0.68175610  0.24957216    -0.22100
C378        C  0.82445886  0.66138679  0.29269890     0.12500
S379        S  0.73811062  0.65373918  0.34857159    -0.05700
C380        C  0.79480099  0.61371808  0.36415979    -0.09200
C381        C  0.83609457  0.61903354  0.32693474    -0.25800
S382        S  0.86714768  0.76963044  0.17960178    -0.03000
C383        C  0.81294320  0.81511265  0.18348003    -0.16400
C384        C  0.77405027  0.79597357  0.21790942    -0.14400
H385        H  0.71645412  0.74722369  0.29067217     0.20900
H386        H  0.88661049  0.65902960  0.23195747     0.17000
H387        H  0.86993862  0.59194577  0.32399866     0.19500
H388        H  0.73264391  0.81097409  0.22096085     0.12800
C389        C  0.49331726  0.72410657  0.24319771     0.16700
C390        C  0.47195786  0.76258139  0.27873842    -0.32300
C391        C  0.50718191  0.77924990  0.32082152     0.21100
C392        C  0.56124036  0.76229727  0.32106811     0.03300
C393        C  0.58191302  0.72610152  0.28637170    -0.22100
C394        C  0.54639524  0.70612244  0.24968787     0.12500
S395        S  0.46160978  0.69384677  0.19006674    -0.05700
C396        C  0.51720520  0.65008905  0.18608909    -0.09200
C397        C  0.56041507  0.66709109  0.21728018    -0.25800
S398        S  0.60189986  0.78936560  0.36458471    -0.03000
C399        C  0.54590681  0.82144610  0.39268957    -0.16400
C400        C  0.49717080  0.81344424  0.36331082    -0.14400
H401        H  0.43037727  0.77758348  0.27457890     0.20900
H402        H  0.62425467  0.71259920  0.28906604     0.17000
H403        H  0.60196705  0.65137989  0.21619902     0.19500
H404        H  0.45860545  0.83371111  0.37012571     0.12800
C405        C  0.72323962  0.90615289  0.27015747     0.16700
C406        C  0.71231448  0.90952939  0.32476894    -0.32300
C407        C  0.65750476  0.91154431  0.33954704     0.21100
C408        C  0.61555884  0.90974510  0.30212929     0.03300
C409        C  0.62639344  0.90630125  0.24743042    -0.22100
C410        C  0.68139882  0.90455065  0.23259342     0.12500
S411        S  0.78653819  0.90622113  0.24336656    -0.05700
C412        C  0.75754718  0.89537536  0.17971677    -0.09200
C413        C  0.70029420  0.90122824  0.18158823    -0.25800
S414        S  0.55252418  0.91267382  0.32949939    -0.03000
C415        C  0.58379614  0.90595435  0.39324855    -0.16400
C416        C  0.63867308  0.91620266  0.39038348    -0.14400
H417        H  0.74502738  0.91121687  0.35439921     0.20900
H418        H  0.59358814  0.90491080  0.21785259     0.17000
H419        H  0.67164959  0.90382934  0.14896322     0.19500
H420        H  0.66450790  0.92566425  0.42398142     0.12800
C421        C  0.68751997  0.77586678  0.47610256     0.16700
C422        C  0.73783278  0.74781936  0.47204780    -0.32300
C423        C  0.73649616  0.69328286  0.47246549     0.21100
C424        C  0.68735442  0.66952919  0.47495781     0.03300
C425        C  0.63783427  0.69725137  0.47827612    -0.22100
C426        C  0.63931501  0.75084047  0.48105342     0.12500
S427        S  0.67744367  0.84100506  0.47067647    -0.05700
C428        C  0.60664906  0.83409945  0.46930804    -0.09200
C429        C  0.59456468  0.78385730  0.48435003    -0.25800
S430        S  0.69199484  0.60507910  0.47031093    -0.03000
C431        C  0.75963264  0.60754385  0.45358204    -0.16400
C432        C  0.77907151  0.65747402  0.46445684    -0.14400
H433        H  0.77559740  0.76742942  0.46695433     0.20900
H434        H  0.59958388  0.67769316  0.47934612     0.17000
H435        H  0.55340458  0.77002712  0.48504620     0.19500
H436        H  0.81984488  0.66895201  0.45527498     0.12800
C437        C  0.99266059  0.72161614  0.83753203     0.16700
C438        C  0.99677938  0.66877963  0.82506536    -0.32300
C439        C  0.98259142  0.65331720  0.77287791     0.21100
C440        C  0.96562982  0.68876979  0.73422018     0.03300
C441        C  0.96040818  0.74249299  0.74712141    -0.22100
C442        C  0.97509158  0.75819361  0.80012755     0.12500
S443        S  0.00733799  0.74628824  0.89898432    -0.05700
C444        C  0.99836958  0.81008983  0.87468400    -0.09200
C445        C  0.97612953  0.80830309  0.82153096    -0.25800
S446        S  0.96116267  0.66040524  0.67158206    -0.03000
C447        C  0.99160005  0.60202286  0.69702321    -0.16400
C448        C  0.98937246  0.60381097  0.75309066    -0.14400
H449        H  0.01151071  0.64069039  0.85478672     0.20900
H450        H  0.94826102  0.77085379  0.71670187     0.17000
H451        H  0.96109264  0.84134600  0.79854068     0.19500
H452        H  0.99124710  0.57182245  0.77963100     0.12800
C453        C  0.13623339  0.69396872  0.68122900     0.16700
C454        C  0.16265382  0.73472690  0.70479166    -0.32300
C455        C  0.20333506  0.75690461  0.67605212     0.21100
C456        C  0.21950613  0.73802869  0.62753045     0.03300
C457        C  0.19605307  0.69288178  0.60681232    -0.22100
C458        C  0.15009026  0.67380734  0.63244167     0.12500
S459        S  0.08871648  0.66269111  0.71212624    -0.05700
C460        C  0.07689164  0.62464489  0.65580977    -0.09200
C461        C  0.11625192  0.63371149  0.61721484    -0.25800
S462        S  0.26901918  0.77426516  0.59955106    -0.03000
C463        C  0.26576116  0.81636235  0.65301918    -0.16400
C464        C  0.23168750  0.79785299  0.69233194    -0.14400
H465        H  0.15042419  0.74978216  0.74320193     0.20900
H466        H  0.21442648  0.67235119  0.57451956     0.17000
H467        H  0.12349946  0.60871929  0.58371830     0.19500
H468        H  0.22780164  0.81337319  0.73223030     0.12800
C469        C  0.21534059  0.91558356  0.77830303     0.16700
C470        C  0.19144241  0.91922660  0.82836621    -0.32300
C471        C  0.13456127  0.92096084  0.82984692     0.21100
C472        C  0.10305731  0.91688125  0.78372721     0.03300
C473        C  0.12715928  0.91523980  0.73299957    -0.22100
C474        C  0.18454053  0.91506356  0.73154999     0.12500
S475        S  0.28293207  0.90823687  0.76941137    -0.05700
C476        C  0.27199390  0.89786346  0.70175303    -0.09200
C477        C  0.21692278  0.90951477  0.68726548    -0.25800
S478        S  0.03668805  0.90523667  0.79636696    -0.03000
C479        C  0.05337111  0.89870762  0.86418112    -0.16400
C480        C  0.10461542  0.91875122  0.87539910    -0.14400
H481        H  0.21617089  0.91884900  0.86480688     0.20900
H482        H  0.10269011  0.91127870  0.69680730     0.17000
H483        H  0.20004932  0.90407052  0.64736988     0.19500
H484        H  0.12397526  0.91726052  0.91480108     0.12800
C485        C  0.21466438  0.52514637  0.83300814     0.16700
C486        C  0.15884299  0.52457812  0.82199147    -0.32300
C487        C  0.14194670  0.52924495  0.76846906     0.21100
C488        C  0.17873911  0.53047485  0.72771082     0.03300
C489        C  0.23474170  0.53248848  0.73870816    -0.22100
C490        C  0.25134353  0.53192672  0.79279357     0.06100
S491        S  0.24277446  0.52330342  0.89521944    -0.05700
C492        C  0.30189567  0.54725801  0.86838397    -0.09200
C493        C  0.30193333  0.54249772  0.81254023    -0.25800
S494        S  0.14904621  0.53120859  0.66600832    -0.03000
C495        C  0.08577483  0.54190172  0.69579301    -0.16400
C496        C  0.08928348  0.53285279  0.75046672    -0.14400
H497        H  0.12977657  0.52222255  0.85381243     0.20900
H498        H  0.26355964  0.53671291  0.70691000     0.17000
H499        H  0.33352743  0.55008706  0.78536873     0.19500
H500        H  0.05746809  0.52641754  0.77680406     0.12800
C501        C  0.20910596  0.67954407  0.94440983     0.16700
C502        C  0.16775542  0.71087778  0.96769554    -0.32300
C503        C  0.14489122  0.75268959  0.93723594     0.21100
C504        C  0.15828513  0.75779681  0.88410410     0.03300
C505        C  0.19578218  0.72485297  0.85984204    -0.22100
C506        C  0.22099005  0.68658667  0.89138085     0.12500
S507        S  0.24991372  0.63181918  0.97510937    -0.05700
C508        C  0.28395729  0.62412381  0.91626353    -0.09200
C509        C  0.26025497  0.65351174  0.87448087    -0.25800
S510        S  0.12214947  0.80291136  0.84989957    -0.03000
C511        C  0.08930061  0.82093897  0.90853710    -0.16400
C512        C  0.10574123  0.78970195  0.95224288    -0.14400
H513        H  0.15297730  0.70221001  0.00664512     0.20900
H514        H  0.20596335  0.72949070  0.81820513     0.17000
H515        H  0.27346460  0.65247382  0.83343140     0.19500
H516        H  0.08538690  0.78987990  0.99011608     0.12800
C517        C  0.37352176  0.71046173  0.84221830     0.16700
C518        C  0.36914071  0.76328110  0.82881020    -0.32300
C519        C  0.36927621  0.77643243  0.77423235     0.21100
C520        C  0.37456995  0.73928944  0.73520684     0.03300
C521        C  0.38162296  0.68670209  0.74861022    -0.22100
C522        C  0.38021960  0.67325146  0.80303876     0.12500
S523        S  0.37768257  0.68607191  0.90559344    -0.05700
C524        C  0.37318429  0.62406242  0.87830349    -0.09200
C525        C  0.38537011  0.62434821  0.82430619    -0.25800
S526        S  0.37273485  0.76426633  0.67197788    -0.03000
C527        C  0.35307248  0.82483285  0.69759541    -0.16400
C528        C  0.36398117  0.82522046  0.75275451    -0.14400
H529        H  0.36547808  0.79262556  0.85941935     0.20900
H530        H  0.38661370  0.65753894  0.71799886     0.17000
H531        H  0.39935668  0.59124262  0.80191395     0.19500
H532        H  0.36998218  0.85877629  0.77705207     0.12800
C533        C  0.68691367  0.00273610  0.84512170     0.16700
C534        C  0.63396849  0.00169104  0.82288620    -0.32300
C535        C  0.62879114  0.00157869  0.76693724     0.21100
C536        C  0.67404302  0.00013898  0.73525829     0.03300
C537        C  0.72682373  0.00307369  0.75747028    -0.22100
C538        C  0.73187682  0.00544429  0.81338148     0.12500
S539        S  0.70232885  0.00475642  0.91130791    -0.05700
C540        C  0.76728549  0.02433268  0.89679440    -0.09200
C541        C  0.77851408  0.01406330  0.84284920    -0.25800
S542        S  0.65838361  0.00121584  0.66900500    -0.03000
C543        C  0.59373599  0.02456257  0.68459099    -0.16400
C544        C  0.58163598  0.00977829  0.73714659    -0.14400
H545        H  0.59851260  0.00299402  0.84795893     0.20900
H546        H  0.76201725  0.00529240  0.73228827     0.17000
H547        H  0.81682221  0.02183101  0.82423433     0.19500
H548        H  0.54279360  0.01814555  0.75560968     0.12800
C549        C  0.68022656  0.16175646  0.61159056     0.16700
C550        C  0.73155763  0.18254803  0.60632164    -0.32300
C551        C  0.73351380  0.23615979  0.60164423     0.21100
C552        C  0.68703849  0.26724692  0.60462970     0.03300
C553        C  0.63550910  0.24649040  0.61164326    -0.22100
C554        C  0.63329737  0.19242664  0.61453696     0.12500
S555        S  0.66953365  0.09823162  0.61324933    -0.05700
C556        C  0.60068919  0.11023787  0.62454611    -0.09200
C557        C  0.58758062  0.16355750  0.61990979    -0.25800
S558        S  0.69965529  0.33068830  0.59948115    -0.03000
C559        C  0.76952042  0.31670942  0.60681377    -0.16400
C560        C  0.77954924  0.26396128  0.59615697    -0.14400
H561        H  0.76814730  0.15791308  0.60453997     0.20900
H562        H  0.59901525  0.27118124  0.61376138     0.17000
H563        H  0.54737452  0.18066437  0.62672519     0.19500
H564        H  0.81986475  0.24536097  0.59655257     0.12800
C565        C  0.86107079  0.22220833  0.74232051     0.16700
C566        C  0.88427392  0.18245782  0.77761792    -0.32300
C567        C  0.84895790  0.15791449  0.81460859     0.21100
C568        C  0.79364282  0.16983009  0.81102652     0.03300
C569        C  0.77146626  0.20711609  0.77636916    -0.22100
C570        C  0.80621161  0.23366808  0.74431704     0.12500
S571        S  0.89145909  0.26141162  0.69433264    -0.05700
C572        C  0.83032598  0.29732007  0.68417778    -0.09200
C573        C  0.78923730  0.27345621  0.71241332    -0.25800
S574        S  0.75430140  0.13683283  0.85164479    -0.03000
C575        C  0.81191164  0.10682484  0.88142658    -0.16400
C576        C  0.86036209  0.12122753  0.85618065    -0.14400
H577        H  0.92710987  0.17140813  0.77656105     0.20900
H578        H  0.72810024  0.21635622  0.77526874     0.17000
H579        H  0.74655767  0.28560636  0.70984397     0.19500
H580        H  0.90061105  0.10552030  0.86673130     0.12800
C581        C  0.58162467  0.16323749  0.78382028     0.16700
C582        C  0.60549086  0.19786788  0.81818758    -0.32300
C583        C  0.57126189  0.22987256  0.84748742     0.21100
C584        C  0.51566494  0.22482004  0.84805360     0.03300
C585        C  0.49145047  0.18648103  0.81550853    -0.22100
C586        C  0.52579643  0.15787006  0.78033578     0.12500
S587        S  0.61815274  0.12919931  0.73991907    -0.05700
C588        C  0.55773463  0.10946456  0.70985028    -0.09200
C589        C  0.51162623  0.12527007  0.73818325    -0.25800
S590        S  0.48384183  0.27085313  0.88832073    -0.03000
C591        C  0.54590387  0.29892111  0.89951535    -0.16400
C592        C  0.58831725  0.27047096  0.87587003    -0.14400
H593        H  0.64908880  0.20246801  0.81917437     0.20900
H594        H  0.44824600  0.18056164  0.81601073     0.17000
H595        H  0.47119053  0.11304401  0.72894598     0.19500
H596        H  0.63093808  0.27973664  0.87917651     0.12800
C597        C  0.67947518  0.26572464  0.99035438     0.16700
C598        C  0.73109774  0.24119456  0.98469717    -0.32300
C599        C  0.73289410  0.18701065  0.98102941     0.21100
C600        C  0.68566468  0.15982770  0.98252675     0.03300
C601        C  0.63454843  0.18429966  0.98725345    -0.22100
C602        C  0.63283463  0.23787491  0.99201546     0.12500
S603        S  0.66640401  0.33023533  0.99271727    -0.05700
C604        C  0.59778302  0.31970771  0.98052912    -0.09200
C605        C  0.58668073  0.26879561  0.99460563    -0.25800
S606        S  0.69534374  0.09564784  0.97834809    -0.03000
C607        C  0.76330684  0.10350162  0.96489576    -0.16400
C608        C  0.77806445  0.15476236  0.97453891    -0.14400
H609        H  0.76772388  0.26316259  0.98293729     0.20900
H610        H  0.59772366  0.16246904  0.98738844     0.17000
H611        H  0.54639642  0.25303319  0.99230804     0.19500
H612        H  0.81851780  0.16887280  0.96863818     0.12800
C613        C  0.63211921  0.37882106  0.80349110     0.16700
C614        C  0.64723964  0.38109786  0.74992386    -0.32300
C615        C  0.70320381  0.38297990  0.73947212     0.21100
C616        C  0.74258520  0.38002615  0.77940563     0.03300
C617        C  0.72747180  0.37871191  0.83310087    -0.22100
C618        C  0.67128819  0.37926599  0.84370064     0.12500
S619        S  0.56666120  0.38199303  0.82590422    -0.05700
C620        C  0.59212693  0.37888764  0.89205303    -0.09200
C621        C  0.64846324  0.38477686  0.89260253    -0.25800
S622        S  0.80771610  0.38220179  0.75612999    -0.03000
C623        C  0.78125372  0.38020275  0.69030281    -0.16400
C624        C  0.72543546  0.39043339  0.69082312    -0.14400
H625        H  0.61678674  0.38366133  0.71793198     0.20900
H626        H  0.75783569  0.37925248  0.86515638     0.17000
H627        H  0.67267662  0.39749308  0.92578989     0.19500
H628        H  0.70127453  0.40531916  0.65748850     0.12800
C629        C  0.21102225  0.71566425  0.48190433     0.16700
C630        C  0.18744294  0.66701120  0.48016119    -0.32300
C631        C  0.13124869  0.66507695  0.48903712     0.21100
C632        C  0.09918806  0.70946218  0.49383101     0.03300
C633        C  0.12319722  0.75799920  0.49888539    -0.22100
C634        C  0.18026584  0.75970814  0.49311311     0.12500
S635        S  0.27804561  0.72647520  0.47254950    -0.05700
C636        C  0.26511059  0.79364144  0.47699211    -0.09200
C637        C  0.21162209  0.80288183  0.49482950    -0.25800
S638        S  0.03117913  0.69885890  0.48405820    -0.03000
C639        C  0.04663059  0.63397164  0.47045458    -0.16400
C640        C  0.10097084  0.62182064  0.48572506    -0.14400
H641        H  0.21183978  0.63222177  0.47227022     0.20900
H642        H  0.09835301  0.79311032  0.50348883     0.17000
H643        H  0.19607782  0.83899720  0.51087564     0.19500
H644        H  0.12000408  0.58360094  0.48255396     0.12800
C645        C  0.97008319  0.66414131  0.29666804     0.16700
C646        C  0.98249278  0.67928560  0.24410531    -0.32300
C647        C  0.98040911  0.73249713  0.23163958     0.21100
C648        C  0.96691516  0.76882569  0.26952588     0.03300
C649        C  0.95477445  0.75389161  0.32237756    -0.22100
C650        C  0.95838770  0.70050307  0.33541615     0.12500
S651        S  0.97378715  0.60192366  0.32034882    -0.05700
C652        C  0.97567103  0.62578619  0.38592963    -0.09200
C653        C  0.95788273  0.67825052  0.38605121    -0.25800
S654        S  0.97151579  0.83080418  0.24595434    -0.03000
C655        C  0.00439383  0.80802778  0.18903499    -0.16400
C656        C  0.99377225  0.75522162  0.18368085    -0.14400
H657        H  0.99407560  0.65074611  0.21449527     0.20900
H658        H  0.94670066  0.78271390  0.35274074     0.17000
H659        H  0.94895721  0.70077579  0.42103892     0.19500
H660        H  0.00122699  0.73264893  0.14807096     0.12800
C661        C  0.18278744  0.89619501  0.36177352     0.16700
C662        C  0.13052468  0.89339043  0.33778938    -0.32300
C663        C  0.12691776  0.88835131  0.28175294     0.21100
C664        C  0.17286913  0.88694911  0.25161561     0.03300
C665        C  0.22521720  0.89183917  0.27546546    -0.22100
C666        C  0.22898951  0.89686112  0.33171738     0.12500
S667        S  0.19658433  0.89319936  0.42841402    -0.05700
C668        C  0.26531399  0.87928074  0.41672143    -0.09200
C669        C  0.27622082  0.89478336  0.36375672    -0.25800
S670        S  0.15880702  0.87688497  0.18558458    -0.03000
C671        C  0.08922207  0.86899341  0.19718183    -0.16400
C672        C  0.08004160  0.88223270  0.25118986    -0.14400
H673        H  0.09450251  0.89250705  0.36199480     0.20900
H674        H  0.26145721  0.88968011  0.25154332     0.17000
H675        H  0.31624638  0.89037541  0.34652432     0.19500
H676        H  0.04181626  0.89061018  0.26933192     0.12800
C677        C  0.32032780  0.74989666  0.31994984     0.16700
C678        C  0.31158067  0.73554452  0.26813634    -0.32300
C679        C  0.34405933  0.69593289  0.24882810     0.21100
C680        C  0.37960274  0.66715314  0.28125419     0.03300
C681        C  0.39382551  0.68671753  0.33332408    -0.22100
C682        C  0.36424912  0.73233274  0.35072657     0.12500
S683        S  0.27469379  0.78590428  0.35058450    -0.05700
C684        C  0.32326888  0.79917161  0.39940762    -0.09200
C685        C  0.36806790  0.76268920  0.39723890    -0.25800
S686        S  0.39640179  0.60839474  0.25114818    -0.03000
C687        C  0.35634975  0.62659599  0.19370652    -0.16400
C688        C  0.33558304  0.67682288  0.19973653    -0.14400
H689        H  0.27794189  0.75278718  0.24445674     0.20900
H690        H  0.42449486  0.66722780  0.35871464     0.17000
H691        H  0.39894678  0.75697036  0.42847174     0.19500
H692        H  0.30461750  0.69639213  0.17575847     0.12800
C693        C  0.23114972  0.56047126  0.29177623     0.16700
C694        C  0.20325859  0.54357376  0.33769602    -0.32300
C695        C  0.15298041  0.56926540  0.35019431     0.21100
C696        C  0.14011992  0.61633345  0.32620174     0.03300
C697        C  0.16924918  0.63518164  0.28382450    -0.22100
C698        C  0.21223562  0.60420496  0.26538298     0.12500
S699        S  0.28837020  0.53310221  0.26162784    -0.05700
C700        C  0.28000162  0.57565409  0.20803969    -0.09200
C701        C  0.23998535  0.61373385  0.22069833    -0.25800
S702        S  0.08692938  0.64864829  0.35177204    -0.03000
C703        C  0.07008229  0.59328452  0.38723705    -0.16400
C704        C  0.11218532  0.55485720  0.38524746    -0.14400
H705        H  0.22032256  0.51356874  0.36324146     0.20900
H706        H  0.15685075  0.67124734  0.26397413     0.17000
H707        H  0.23142665  0.64895712  0.19833520     0.19500
H708        H  0.11371248  0.52009143  0.40940138     0.12800
C709        C  0.19822205  0.65029544  0.09793497     0.16700
C710        C  0.14874820  0.66869545  0.11754410    -0.32300
C711        C  0.13869127  0.72203966  0.11690135     0.21100
C712        C  0.17105496  0.75526469  0.09056262     0.03300
C713        C  0.22462098  0.73805360  0.07728707    -0.22100
C714        C  0.23822455  0.68460677  0.08562695     0.12500
S715        S  0.22017118  0.58785585  0.10577601    -0.05700
C716        C  0.28448516  0.61175066  0.11552154    -0.09200
C717        C  0.28934510  0.66064584  0.09161925    -0.25800
S718        S  0.14046251  0.81600944  0.08369948    -0.03000
C719        C  0.09011328  0.79846752  0.12868130    -0.16400
C720        C  0.10010098  0.74730321  0.14519197    -0.14400
H721        H  0.12121204  0.64289169  0.13667411     0.20900
H722        H  0.25449800  0.76491395  0.06431704     0.17000
H723        H  0.32690216  0.68126413  0.09007455     0.19500
H724        H  0.08595171  0.72882921  0.18069289     0.12800
C725        C  0.12920684  0.41057740  0.79788082     0.16700
C726        C  0.14347917  0.40234989  0.85160597    -0.32300
C727        C  0.19913044  0.39772192  0.86462729     0.21100
C728        C  0.23818044  0.40596623  0.82706611     0.03300
C729        C  0.22393860  0.41221057  0.77293930    -0.22100
C730        C  0.16837456  0.41231205  0.75933642     0.12500
S731        S  0.06464599  0.41585498  0.77332030    -0.05700
C732        C  0.09033140  0.40565560  0.70932194    -0.09200
C733        C  0.14615364  0.41323704  0.70894682    -0.25800
S734        S  0.30268774  0.40100840  0.85155241    -0.03000
C735        C  0.27795057  0.37372641  0.90995021    -0.16400
C736        C  0.22093179  0.37895425  0.91166798    -0.14400
H737        H  0.11268673  0.39700927  0.88132582     0.20900
H738        H  0.25472966  0.41475643  0.74273670     0.17000
H739        H  0.17045481  0.42003285  0.67459969     0.19500
H740        H  0.19357531  0.36348907  0.93970386     0.12800
C741        C  0.25802937  0.21929515  0.00692772     0.16700
C742        C  0.24128978  0.16802427  0.00919975    -0.32300
C743        C  0.18498402  0.16033344  0.00716933     0.21100
C744        C  0.14782056  0.20178284  0.00365486     0.03300
C745        C  0.16440200  0.25283053  0.00595058    -0.22100
C746        C  0.22041270  0.26041340  0.00805387     0.12500
S747        S  0.32281549  0.23765078  0.99598072    -0.05700
C748        C  0.29649929  0.30088972  0.98655453    -0.09200
C749        C  0.24433847  0.30706569  0.00508859    -0.25800
S750        S  0.08295847  0.18487343  0.99159774    -0.03000
C751        C  0.10712004  0.12098683  0.98254846    -0.16400
C752        C  0.16049108  0.11377976  0.00124627    -0.14400
H753        H  0.27058837  0.13571539  0.00801298     0.20900
H754        H  0.13511845  0.28520142  0.00304463     0.17000
H755        H  0.22383560  0.34375560  0.01282382     0.19500
H756        H  0.18135282  0.07684306  0.00782125     0.12800
C757        C  0.08074722  0.19699920  0.83287039     0.16700
C758        C  0.10216482  0.22903804  0.79562501    -0.32300
C759        C  0.06739409  0.26465111  0.77087409     0.21100
C760        C  0.01351408  0.27178422  0.78393780     0.03300
C761        C  0.99130375  0.23902086  0.82354838    -0.22100
C762        C  0.02630544  0.19882422  0.84617982     0.12500
S763        S  0.12086342  0.15473885  0.86554268    -0.05700
C764        C  0.06406990  0.13049326  0.89602218    -0.09200
C765        C  0.01558012  0.15926006  0.88289264    -0.25800
S766        S  0.98237862  0.32273609  0.74769461    -0.03000
C767        C  0.04142559  0.32763296  0.71094653    -0.16400
C768        C  0.08344815  0.29612326  0.73231561    -0.14400
H769        H  0.14481207  0.22580726  0.78545354     0.20900
H770        H  0.94945260  0.24432589  0.83561793     0.17000
H771        H  0.97649541  0.15336784  0.90061523     0.19500
H772        H  0.12561130  0.29687501  0.72032866     0.12800
C773        C  0.29437992  0.23939649  0.82355332     0.16700
C774        C  0.27051421  0.20339680  0.79176328    -0.32300
C775        C  0.30133329  0.18276564  0.75139557     0.21100
C776        C  0.35263357  0.19852595  0.73928540     0.03300
C777        C  0.37496722  0.23972183  0.76872705    -0.22100
C778        C  0.34527326  0.25799058  0.81343801     0.12500
S779        S  0.26459518  0.26045765  0.87868782    -0.05700
C780        C  0.32267246  0.29416755  0.89369724    -0.09200
C781        C  0.36074111  0.29212646  0.85289218    -0.25800
S782        S  0.38259664  0.16108036  0.68968981    -0.03000
C783        C  0.32549617  0.12335951  0.68932527    -0.16400
C784        C  0.28549372  0.14290224  0.72284681    -0.14400
H785        H  0.23124099  0.18832401  0.80126457     0.20900
H786        H  0.41482860  0.25376540  0.76006473     0.17000
H787        H  0.39480090  0.31705481  0.85027875     0.19500
H788        H  0.24481134  0.12846254  0.72570938     0.12800
C789        C  0.17883475  0.17197723  0.61186220     0.16700
C790        C  0.12691813  0.19748191  0.61371200    -0.32300
C791        C  0.12460871  0.25220107  0.61301173     0.21100
C792        C  0.17176042  0.27934430  0.61247579     0.03300
C793        C  0.22330546  0.25390639  0.61092106    -0.22100
C794        C  0.22545096  0.19955310  0.60926076     0.12500
S795        S  0.19201287  0.10669751  0.61370132    -0.05700
C796        C  0.26250464  0.11497955  0.61544081    -0.09200
C797        C  0.27170020  0.16791192  0.60562282    -0.25800
S798        S  0.16090763  0.34442806  0.61610356    -0.03000
C799        C  0.09236633  0.33673623  0.62819261    -0.16400
C800        C  0.07887895  0.28498271  0.61691396    -0.14400
H801        H  0.09018280  0.17572980  0.61603243     0.20900
H802        H  0.26017530  0.27561551  0.61036048     0.17000
H803        H  0.31181337  0.18369220  0.60380221     0.19500
H804        H  0.03857501  0.27031730  0.62236431     0.12800
C805        C  0.25413863  0.03159773  0.78046556     0.16700
C806        C  0.24418614  0.03586156  0.83536166    -0.32300
C807        C  0.18950264  0.03755411  0.85128617     0.21100
C808        C  0.14714791  0.03391708  0.81446885     0.03300
C809        C  0.15708578  0.03063888  0.75959743    -0.22100
C810        C  0.21158632  0.02968076  0.74366284     0.12500
S811        S  0.31678345  0.03047865  0.75204121    -0.05700
C812        C  0.28422118  0.03966128  0.68945093    -0.09200
C813        C  0.22952973  0.02792382  0.69217743    -0.25800
S814        S  0.08431069  0.03435129  0.84199312    -0.03000
C815        C  0.11403485  0.04984437  0.90374113    -0.16400
C816        C  0.17135466  0.04556694  0.90216986    -0.14400
H817        H  0.27745146  0.03892991  0.86420228     0.20900
H818        H  0.12379743  0.02902477  0.73057729     0.17000
H819        H  0.20304177  0.02028450  0.65845820     0.19500
H820        H  0.20049936  0.05337511  0.93305502     0.12800
C821        C  0.01119213  0.21203866  0.25146695     0.16700
C822        C  0.99260632  0.25930047  0.27661398    -0.32300
C823        C  0.02706563  0.28141727  0.31690098     0.21100
C824        C  0.07916155  0.26048554  0.32464452     0.03300
C825        C  0.09618641  0.21389058  0.30203423    -0.22100
C826        C  0.06034777  0.18944495  0.26765403     0.12500
S827        S  0.98111130  0.17678163  0.19970351    -0.05700
C828        C  0.03403485  0.12900932  0.20434310    -0.09200
C829        C  0.07216300  0.14363296  0.24359499    -0.25800
S830        S  0.12030015  0.29479563  0.36390816    -0.03000
C831        C  0.06486246  0.33377869  0.38325403    -0.16400
C832        C  0.01767726  0.32362563  0.35181989    -0.14400
H833        H  0.95344632  0.27744011  0.26582064     0.20900
H834        H  0.13620275  0.19679002  0.31146552     0.17000
H835        H  0.11145781  0.12385267  0.25029528     0.19500
H836        H  0.97967758  0.34597380  0.35363884     0.12800
C837        C  0.18111447  0.27598031  0.48956223     0.16700
C838        C  0.22903195  0.24471404  0.49076551    -0.32300
C839        C  0.22354495  0.19100507  0.48960390     0.21100
C840        C  0.17303384  0.16977519  0.48516033     0.03300
C841        C  0.12495594  0.20105544  0.48528550    -0.22100
C842        C  0.13031303  0.25490975  0.48857694     0.12500
S843        S  0.17921045  0.34116587  0.48315957    -0.05700
C844        C  0.10924826  0.34118048  0.47136386    -0.09200
C845        C  0.08895862  0.29238139  0.48380182    -0.25800
S846        S  0.17613314  0.10485979  0.47528724    -0.03000
C847        C  0.24701348  0.10540621  0.47448925    -0.16400
C848        C  0.26525036  0.15423702  0.48913844    -0.14400
H849        H  0.26880498  0.26152482  0.49151018     0.20900
H850        H  0.08534078  0.18433841  0.48084794     0.17000
H851        H  0.04681129  0.28268152  0.47696684     0.19500
H852        H  0.30775224  0.16419610  0.48987139     0.12800
C853        C  0.11323863  0.01450674  0.28266349     0.16700
C854        C  0.12672525  0.01352474  0.33742563    -0.32300
C855        C  0.18225034  0.01329099  0.35199349     0.21100
C856        C  0.22229183  0.01218568  0.31399637     0.03300
C857        C  0.20883411  0.01046537  0.25921876    -0.22100
C858        C  0.15329638  0.01248167  0.24457552     0.12500
S859        S  0.04955723  0.02774424  0.25692192    -0.05700
C860        C  0.07967050  0.04244158  0.19642799    -0.09200
C861        C  0.13227334  0.02142264  0.19405097    -0.25800
S862        S  0.28658214  0.01636769  0.34023631    -0.03000
C863        C  0.25830220  0.02920725  0.40262209    -0.16400
C864        C  0.20341540  0.01762205  0.40285644    -0.14400
H865        H  0.09542445  0.01669545  0.36723915     0.20900
H866        H  0.24012739  0.01132194  0.22937228     0.17000
H867        H  0.15567015  0.01800493  0.15810386     0.19500
H868        H  0.17881307  0.01485300  0.43783406     0.12800
C869        C  0.28554199  0.18462369  0.33527813     0.16700
C870        C  0.26566787  0.22371002  0.30124643    -0.32300
C871        C  0.30266076  0.25713733  0.28040109     0.21100
C872        C  0.35756506  0.25315098  0.29234419     0.03300
C873        C  0.37690488  0.21669829  0.33225775    -0.22100
C874        C  0.33944737  0.18091649  0.35251463     0.12500
S875        S  0.24554086  0.13903542  0.35850072    -0.05700
C876        C  0.30032041  0.11262449  0.39628946    -0.09200
C877        C  0.34840815  0.13971737  0.38894021    -0.25800
S878        S  0.39440905  0.29420385  0.25228848    -0.03000
C879        C  0.33444062  0.31483495  0.21923799    -0.16400
C880        C  0.28932846  0.29388080  0.24347553    -0.14400
H881        H  0.22304664  0.22643222  0.28909223     0.20900
H882        H  0.41867161  0.21572908  0.34640152     0.17000
H883        H  0.38646385  0.13145646  0.41028520     0.19500
H884        H  0.24734207  0.30305573  0.23184296     0.12800
C885        C  0.14794909  0.43182594  0.30888768     0.16700
C886        C  0.16266953  0.43306051  0.25498023    -0.32300
C887        C  0.21824116  0.42549974  0.24406020     0.21100
C888        C  0.25702928  0.42093988  0.28491240     0.03300
C889        C  0.24253774  0.42072837  0.33839647    -0.22100
C890        C  0.18699445  0.42500147  0.34913175     0.12500
S891        S  0.08308927  0.43274925  0.33136676    -0.05700
C892        C  0.10947563  0.41445337  0.39439401    -0.09200
C893        C  0.16502602  0.42173400  0.39840008    -0.25800
S894        S  0.32172525  0.41320597  0.26402456    -0.03000
C895        C  0.29477889  0.39956593  0.20066264    -0.16400
C896        C  0.24069088  0.41719348  0.19496926    -0.14400
H897        H  0.13205486  0.43587346  0.22314777     0.20900
H898        H  0.27300943  0.41562598  0.37018945     0.17000
H899        H  0.18951789  0.42346147  0.43443222     0.19500
H900        H  0.21830883  0.42306439  0.15788078     0.12800
C901        C  0.24880536  0.23281381  0.13107478     0.16700
C902        C  0.23468720  0.18102536  0.13689686    -0.32300
C903        C  0.17896049  0.17042047  0.13516561     0.21100
C904        C  0.13993290  0.20922873  0.12646236     0.03300
C905        C  0.15367317  0.26133870  0.12537988    -0.22100
C906        C  0.20924773  0.27207229  0.12838123     0.12500
S907        S  0.31339853  0.25389381  0.12672037    -0.05700
C908        C  0.28784972  0.31762349  0.13403908    -0.09200
C909        C  0.23093132  0.32015044  0.12791026    -0.25800
S910        S  0.07636178  0.18744750  0.11689773    -0.03000
C911        C  0.09952928  0.12491591  0.13502012    -0.16400
C912        C  0.15677921  0.12289384  0.14129649    -0.14400
H913        H  0.26571149  0.15031872  0.14141789     0.20900
H914        H  0.12261449  0.29199375  0.12059863     0.17000
H915        H  0.20470382  0.35389643  0.12458388     0.19500
H916        H  0.18330670  0.09122331  0.15360849     0.12800
loop_ 
_geom_bond_atom_site_label_1 
_geom_bond_atom_site_label_2 
_geom_bond_distance 
_geom_bond_site_symmetry_2 
_ccdc_geom_bond_type 
C1           C17   1.564       .  S
C1          C879   1.579       .  S
C1          C895   1.551       .  S
C1          C908   1.565       .  S
C2           C50   1.563       .  S
C2          C847   1.563       .  S
C2          C863   1.555       .  S
C2          C876   1.575       .  S
C3          C114   1.573       .  S
C3          C828   1.591       .  S
C3          C860   1.559       .  S
C3          C911   1.571       .  S
C4          C128   1.559       .  S
C4          C831   1.592       .  S
C4          C844   1.569       .  S
C4          C892   1.544       .  S
C5           C69   1.570       .  S
C5          C783   1.544       .  S
C5          C796   1.602       .  S
C5          C812   1.574       .  S
C6           C95   1.552       .  S
C6          C751   1.556       .  S
C6          C764   1.562       .  S
C6          C815   1.564       .  S
C7          C130   1.551       .  S
C7          C732   1.559       .  S
C7          C767   1.552       .  S
C7          C799   1.593       .  S
C8           C20   1.538       .  S
C8          C735   1.568       .  S
C8          C748   1.540       .  S
C8          C780   1.533       .  S
O9           C17   1.263       .  A
O9          Co29   2.011       .  S
O10          C18   1.274       .  A
O10         Co30   2.057   1_556  S
O11          C19   1.258       .  A
O11         Co31   2.050       .  S
O12          C20   1.254       .  A
O12         Co32   1.926       .  S
O13          C19   1.271       .  A
O13         Co30   2.003       .  S
O14          C20   1.282       .  A
O14         Co29   2.062   1_556  S
O15          C18   1.253       .  A
O15         Co32   1.966       .  S
O16          C17   1.261       .  A
O16         Co31   2.042       .  S
C18          C75   1.549       .  S
C19          C38   1.574       .  S
O21          C34   1.268   1_554  A
O21         Co29   2.023       .  S
O22          C35   1.274       .  A
O22         Co30   1.925       .  S
O23          C36   1.310       .  A
O23         Co31   2.055       .  S
O24          C37   1.273       .  A
O24         Co32   2.058       .  S
O25          C37   1.275   1_554  A
O25         Co30   2.044       .  S
O26          C36   1.284       .  A
O26         Co29   1.956       .  S
O27          C34   1.268       .  A
O27         Co32   2.055       .  S
O28          C35   1.318       .  A
O28         Co31   2.090       .  S
Co29         O33   2.039       .  S
Co30         O33   2.022       .  S
Co31         O33   2.265       .  S
Co32         O33   2.127   1_556  S
C34          C71   1.573       .  S
C35          C81   1.537       .  S
C36         C118   1.545       .  S
C37          C83   1.583       .  S
C38         C687   1.555       .  S
C38         C700   1.576       .  S
C38         C716   1.569       .  S
C39         C113   1.590       .  S
C39         C655   1.605       .  S
C39         C671   1.618       .  S
C39         C719   1.575       .  S
C40         C147   1.592   1_455  S
C40         C639   1.579       .  S
C40         C652   1.581   1_455  S
C40         C703   1.581       .  S
C41          C53   1.592       .  S
C41         C636   1.589       .  S
C41         C668   1.612       .  S
C41         C684   1.567       .  S
O42          C50   1.292       .  A
O42         Co62   2.077   1_545  S
O43          C51   1.286       .  A
O43         Co63   2.038       .  S
O44          C52   1.252       .  A
O44         Co64   1.978       .  S
O45          C53   1.280       .  A
O45         Co65   1.982       .  S
O46          C52   1.288       .  A
O46         Co63   2.088   1_545  S
O47          C53   1.305       .  A
O47         Co62   2.122       .  S
O48          C51   1.277       .  A
O48         Co65   2.025       .  S
O49          C50   1.262       .  A
O49         Co64   1.995       .  S
C51          C79   1.560       .  S
C52         C116   1.559       .  S
O54          C67   1.283       .  A
O54         Co62   1.959       .  S
O55          C68   1.247       .  A
O55         Co63   1.971   1_545  S
O56          C69   1.271       .  A
O56         Co64   2.046       .  S
O57          C70   1.286       .  A
O57         Co65   2.113       .  S
O58          C70   1.257       .  A
O58         Co63   1.999       .  S
O59          C69   1.280       .  A
O59         Co62   2.015   1_545  S
O60          C67   1.303       .  A
O60         Co65   2.119       .  S
O61          C68   1.287       .  A
O61         Co64   2.124       .  S
Co62         O66   2.059       .  S
Co63         O66   2.065       .  S
Co64         O66   2.167   1_545  S
Co65         O66   2.131       .  S
C67          C76   1.576       .  S
C68          C73   1.581       .  S
C70          C85   1.602       .  S
C71         C591   1.566       .  S
C71         C604   1.577       .  S
C71         C620   1.569       .  S
C72         C129   1.602       .  S
C72         C559   1.588       .  S
C72         C572   1.601       .  S
C72         C623   1.579       .  S
C73         C543   1.584       .  S
C73         C556   1.566       .  S
C73         C588   1.561       .  S
C74          C98   1.561       .  S
C74         C540   1.575       .  S
C74         C575   1.585       .  S
C74         C607   1.564       .  S
C75         C492   1.564       .  S
C75         C508   1.537       .  S
C75         C524   1.552       .  S
C76         C463   1.555       .  S
C76         C476   1.574       .  S
C76         C527   1.579       .  S
C77         C146   1.587       .  S
C77         C447   1.604   1_455  S
C77         C460   1.573       .  S
C77         C495   1.549       .  S
C78          C97   1.603       .  S
C78         C444   1.609   1_455  S
C78         C479   1.565       .  S
C78         C511   1.556       .  S
C79         C399   1.566       .  S
C79         C415   1.559       .  S
C79         C428   1.583       .  S
C80         C145   1.572       .  S
C80         C364   1.563       .  S
C80         C380   1.565       .  S
C80         C431   1.586       .  S
C81         C348   1.551       .  S
C81         C367   1.573       .  S
C81         C396   1.555       .  S
C82         C115   1.566       .  S
C82         C351   1.556       .  S
C82         C383   1.581       .  S
C82         C412   1.575       .  S
C83         C300   1.575       .  S
C83         C319   1.563       .  S
C83         C332   1.559       .  S
C84         C148   1.574       .  S
C84         C268   1.588       .  S
C84         C284   1.560       .  S
C84         C316   1.560       .  S
C85         C255   1.593       .  S
C85         C271   1.575       .  S
C85         C303   1.553       .  S
C86          C96   1.605       .  S
C86         C252   1.590       .  S
C86         C287   1.576       .  S
C86         C335   1.574       .  S
O87          C95   1.262   1_655  A
O87        Co107   2.007   1_556  S
O88          C96   1.282   1_554  A
O88        Co108   1.992       .  S
O89          C97   1.283       .  A
O89        Co109   2.096   1_556  S
O90          C98   1.294   1_554  A
O90        Co110   2.071   1_545  S
O91          C97   1.262   1_655  A
O91        Co108   2.037   1_556  S
O92          C98   1.266       .  A
O92        Co107   2.010   1_556  S
O93          C96   1.312       .  A
O93        Co110   2.147   1_556  S
O94          C95   1.277       .  A
O94        Co109   2.025   1_546  S
O99         C112   1.263       .  A
O99        Co107   2.001       .  S
O100        C113   1.299   1_655  A
O100       Co108   2.101       .  S
O101        C114   1.286       .  A
O101       Co109   2.058   1_545  S
O102        C115   1.275       .  A
O102       Co110   1.934       .  S
O103        C115   1.303       .  A
O103       Co108   2.138       .  S
O104        C114   1.264   1_655  A
O104       Co107   2.024       .  S
O105        C112   1.273   1_565  A
O105       Co110   2.066       .  S
O106        C113   1.269       .  A
O106       Co109   2.016       .  S
Co107       O111   2.181   1_545  S
Co108       O111   2.146       .  S
Co109       O111   2.115   1_455  S
Co110       O111   2.064       .  S
C112        C117   1.574       .  S
C116        C207   1.573       .  S
C116        C223   1.557       .  S
C116        C236   1.567       .  S
C117        C175   1.577       .  S
C117        C191   1.589       .  S
C117        C239   1.547       .  S
C118        C156   1.560       .  S
C118        C172   1.546       .  S
C118        C204   1.554       .  S
C119        C131   1.536       .  S
C119        C159   1.557       .  S
C119        C188   1.573       .  S
C119        C220   1.551       .  S
O120        C128   1.251   1_655  A
O120       Co140   1.974       .  S
O121        C129   1.276       .  A
O121       Co141   2.051       .  S
O122        C130   1.304       .  A
O122       Co142   2.120   1_455  S
O123        C131   1.286       .  A
O123       Co143   2.051       .  S
O124        C130   1.275   1_655  A
O124       Co141   1.931       .  S
O125        C131   1.254       .  A
O125       Co140   1.970       .  S
O126        C129   1.293       .  A
O126       Co143   2.092       .  S
O127        C128   1.295       .  A
O127       Co142   2.087   1_455  S
O132        C145   1.277       .  A
O132       Co140   2.083       .  S
O133        C146   1.304   1_655  A
O133       Co141   2.133       .  S
O134        C147   1.276       .  A
O134       Co142   2.024       .  S
O135        C148   1.253       .  A
O135       Co143   1.978       .  S
O136        C148   1.273       .  A
O136       Co141   2.094       .  S
O137        C147   1.281       .  A
O137       Co140   2.080       .  S
O138        C145   1.256       .  A
O138       Co143   1.989       .  S
O139        C146   1.284       .  A
O139       Co142   1.963   1_455  S
Co140       O144   2.162       .  S
Co141       O144   2.131       .  S
Co142       O144   2.056       .  S
Co143       O144   2.051       .  S
C149        S155   1.686       .  A
C149        C154   1.385       .  A
C149        C150   1.395       .  A
C150        C151   1.395       .  A
C150        H161   1.083       .  S
C151        C160   1.362       .  A
C151        C152   1.378       .  A
C152        S158   1.678       .  A
C152        C153   1.392       .  A
C153        C154   1.394       .  A
C153        H162   1.083       .  S
C154        C157   1.357       .  A
S155        C156   1.722       .  A
C156        C157   1.393       .  A
C157        H163   1.084       .  S
S158        C159   1.733       .  A
C159        C160   1.396       .  A
C160        H164   1.084       .  S
C165        S171   1.667       .  A
C165        C170   1.377       .  A
C165        C166   1.385       .  A
C166        C167   1.386       .  A
C166        H177   1.083       .  S
C167        C176   1.357       .  A
C167        C168   1.378       .  A
C168        S174   1.689       .  A
C168        C169   1.405       .  A
C169        C170   1.404       .  A
C169        H178   1.083       .  S
C170        C173   1.372       .  A
S171        C172   1.730       .  A
C172        C173   1.406       .  A
C173        H179   1.082       .  S
S174        C175   1.747       .  A
C175        C176   1.393       .  A
C176        H180   1.084       .  S
C181        S187   1.747       .  A
C181        C186   1.376       .  A
C181        C182   1.435       .  A
C182        C183   1.431       .  A
C182        H193   1.076       .  S
C183        C192   1.416       .  A
C183        C184   1.377       .  A
C184        S190   1.655       .  A
C184        C185   1.380       .  A
C185        C186   1.379       .  A
C185        H194   1.083       .  S
C186        C189   1.347       .  A
S187        C188   1.751       .  A
C188        C189   1.392       .  A
C189        H195   1.084       .  S
S190        C191   1.744       .  A
C191        C192   1.412       .  A
C192        H196   1.078       .  S
C197        S203   1.663       .  A
C197        C202   1.381       .  A
C197        C198   1.376       .  A
C198        C199   1.379       .  A
C198        H209   1.084       .  S
C199        C208   1.334       .  A
C199        C200   1.374       .  A
C200        S206   1.744       .  A
C200        C201   1.425       .  A
C201        C202   1.424       .  A
C201        H210   1.081       .  S
C202        C205   1.395       .  A
S203        C204   1.737       .  A
C204        C205   1.401       .  A
C205        H211   1.081       .  S
S206        C207   1.748       .  A
C207        C208   1.394       .  A
C208        H212   1.080       .  S
C213        S219   1.696       .  A
C213        C218   1.377       .  A
C213        C214   1.396       .  A
C214        C215   1.401       .  A
C214        H225   1.083       .  S
C215        C224   1.358       .  A
C215        C216   1.379       .  A
C216        S222   1.700       .  A
C216        C217   1.394       .  A
C217        C218   1.399       .  A
C217        H226   1.083       .  S
C218        C221   1.357       .  A
S219        C220   1.748       .  A
C220        C221   1.384       .  A
C221        H227   1.075       .  S
S222        C223   1.750       .  A
C223        C224   1.392       .  A
C224        H228   1.067       .  S
C229        S235   1.682       .  A
C229        C234   1.377       .  A
C229        C230   1.387       .  A
C230        C231   1.389       .  A
C230        H241   1.083       .  S
C231        C240   1.352       .  A
C231        C232   1.377       .  A
C232        S238   1.713       .  A
C232        C233   1.409       .  A
C233        C234   1.413       .  A
C233        H242   1.082       .  S
C234        C237   1.374       .  A
S235        C236   1.745       .  A
C236        C237   1.405       .  A
C237        H243   1.071       .  S
S238        C239   1.763       .  A
C239        C240   1.372       .  A
C240        H244   1.070       .  S
C245        S251   1.717       .  A
C245        C250   1.378       .  A
C245        C246   1.409       .  A
C246        C247   1.411       .  A
C246        H257   1.082       .  S
C247        C256   1.376       .  A
C247        C248   1.375       .  A
C248        S254   1.706       .  A
C248        C249   1.407       .  A
C249        C250   1.409       .  A
C249        H258   1.083       .  S
C250        C253   1.376       .  A
S251        C252   1.758       .  A
C252        C253   1.394       .  A
C253        H259   1.074       .  S
S254        C255   1.755       .  A
C255        C256   1.401       .  A
C256        H260   1.075       .  S
C261        S267   1.691       .  A
C261        C266   1.379       .  A
C261        C262   1.409       .  A
C262        C263   1.407       .  A
C262        H273   1.083       .  S
C263        C272   1.382       .  A
C263        C264   1.379       .  A
C264        S270   1.686       .  A
C264        C265   1.399       .  A
C265        C266   1.397       .  A
C265        H274   1.082       .  S
C266        C269   1.375       .  A
S267        C268   1.737       .  A
C268        C269   1.402       .  A
C269        H275   1.083       .  S
S270        C271   1.732       .  A
C271        C272   1.417       .  A
C272        H276   1.084       .  S
C277        S283   1.664       .  A
C277        C282   1.378       .  A
C277        C278   1.383       .  A
C278        C279   1.385       .  A
C278        H289   1.084       .  S
C279        C288   1.343       .  A
C279        C280   1.366       .  A
C280        S286   1.733       .  A
C280        C281   1.423       .  A
C281        C282   1.419       .  A
C281        H290   1.074       .  S
C282        C285   1.399       .  A
S283        C284   1.738       .  A
C284        C285   1.403       .  A
C285        H291   1.079       .  S
S286        C287   1.735       .  A
C287        C288   1.405       .  A
C288        H292   1.077       .  S
C293        S299   1.665       .  A
C293        C298   1.375       .  A
C293        C294   1.390       .  A
C294        C295   1.391       .  A
C294        H305   1.080       .  S
C295        C304   1.342       .  A
C295        C296   1.367       .  A
C296        S302   1.725       .  A
C296        C297   1.403       .  A
C297        C298   1.406       .  A
C297        H306   1.053       .  S
C298        C301   1.392       .  A
S299        C300   1.752       .  A
C300        C301   1.392       .  A
C301        H307   1.070       .  S
S302        C303   1.716       .  A
C303        C304   1.406       .  A
C304        H308   1.081       .  S
C309        S315   1.667       .  A
C309        C314   1.375       .  A
C309        C310   1.392       .  A
C310        C311   1.392       .  A
C310        H321   1.083       .  S
C311        C320   1.369       .  A
C311        C312   1.380       .  A
C312        S318   1.687       .  A
C312        C313   1.404       .  A
C313        C314   1.401       .  A
C313        H322   1.082       .  S
C314        C317   1.374       .  A
S315        C316   1.735       .  A
C316        C317   1.404       .  A
C317        H323   1.082       .  S
S318        C319   1.741       .  A
C319        C320   1.396       .  A
C320        H324   1.084       .  S
C325        S331   1.697       .  A
C325        C330   1.377       .  A
C325        C326   1.396       .  A
C326        C327   1.401       .  A
C326        H337   1.083       .  S
C327        C336   1.362       .  A
C327        C328   1.374       .  A
C328        S334   1.692       .  A
C328        C329   1.399       .  A
C329        C330   1.401       .  A
C329        H338   1.083       .  S
C330        C333   1.362       .  A
S331        C332   1.749       .  A
C332        C333   1.392       .  A
C333        H339   1.076   1_556  S
S334        C335   1.758       .  A
C335        C336   1.399       .  A
C336        H340   1.062       .  S
C341        S347   1.703       .  A
C341        C346   1.373       .  A
C341        C342   1.409       .  A
C342        C343   1.409       .  A
C342        H353   1.082       .  S
C343        C352   1.372       .  A
C343        C344   1.376       .  A
C344        S350   1.656       .  A
C344        C345   1.374       .  A
C345        C346   1.377       .  A
C345        H354   1.084       .  S
C346        C349   1.338       .  A
S347        C348   1.764       .  A
C348        C349   1.368       .  A
C349        H355   1.062       .  S
S350        C351   1.729       .  A
C351        C352   1.395       .  A
C352        H356   1.077       .  S
C357        S363   1.684       .  A
C357        C362   1.377       .  A
C357        C358   1.401       .  A
C358        C359   1.398       .  A
C358        H369   1.083       .  S
C359        C368   1.367       .  A
C359        C360   1.379       .  A
C360        S366   1.671       .  A
C360        C361   1.392       .  A
C361        C362   1.390       .  A
C361        H370   1.083       .  S
C362        C365   1.361       .  A
S363        C364   1.736       .  A
C364        C365   1.396       .  A
C365        H371   1.082       .  S
S366        C367   1.724       .  A
C367        C368   1.402       .  A
C368        H372   1.083       .  S
C373        S379   1.657       .  A
C373        C378   1.376       .  A
C373        C374   1.372       .  A
C374        C375   1.379       .  A
C374        H385   1.084       .  S
C375        C384   1.328       .  A
C375        C376   1.366       .  A
C376        S382   1.751       .  A
C376        C377   1.428       .  A
C377        C378   1.427       .  A
C377        H386   1.071       .  S
C378        C381   1.403       .  A
S379        C380   1.738       .  A
C380        C381   1.400       .  A
C381        H387   1.070       .  S
S382        C383   1.747       .  A
C383        C384   1.401       .  A
C384        H388   1.078       .  S
C389        S395   1.730       .  A
C389        C394   1.373       .  A
C389        C390   1.429       .  A
C390        C391   1.426       .  A
C390        H401   1.081       .  S
C391        C400   1.405       .  A
C391        C392   1.381       .  A
C392        S398   1.637       .  A
C392        C393   1.370       .  A
C393        C394   1.368       .  A
C393        H402   1.084       .  S
C394        C397   1.337       .  A
S395        C396   1.744       .  A
C396        C397   1.388       .  A
C397        H403   1.084       .  S
S398        C399   1.741       .  A
C399        C400   1.412       .  A
C400        H404   1.082       .  S
C405        S411   1.705       .  A
C405        C410   1.378       .  A
C405        C406   1.399       .  A
C406        C407   1.402       .  A
C406        H417   1.083       .  S
C407        C416   1.366       .  A
C407        C408   1.378       .  A
C408        S414   1.704       .  A
C408        C409   1.401       .  A
C409        C410   1.407       .  A
C409        H418   1.083       .  S
C410        C413   1.368       .  A
S411        C412   1.757       .  A
C412        C413   1.409       .  A
C413        H419   1.065       .  S
S414        C415   1.758       .  A
C415        C416   1.386       .  A
C416        H420   1.076       .  S
C421        S427   1.697       .  A
C421        C426   1.377       .  A
C421        C422   1.414       .  A
C422        C423   1.411       .  A
C422        H433   1.082       .  S
C423        C432   1.388       .  A
C423        C424   1.376       .  A
C424        S430   1.670       .  A
C424        C425   1.392       .  A
C425        C426   1.389       .  A
C425        H434   1.083       .  S
C426        C429   1.370       .  A
S427        C428   1.753       .  A
C428        C429   1.394       .  A
C429        H435   1.084       .  S
S430        C431   1.724       .  A
C431        C432   1.418       .  A
C432        H436   1.083       .  S
C437        S443   1.702   1_655  A
C437        C442   1.377       .  A
C437        C438   1.403       .  A
C438        C439   1.406       .  A
C438        H449   1.083   1_655  S
C439        C448   1.380       .  A
C439        C440   1.375       .  A
C440        S446   1.735       .  A
C440        C441   1.429       .  A
C441        C442   1.430       .  A
C441        H450   1.082       .  S
C442        C445   1.405       .  A
S443        C444   1.759   1_455  A
C444        C445   1.427       .  A
C445        H451   1.076       .  S
S446        C447   1.767       .  A
C447        C448   1.404       .  A
C448        H452   1.056       .  S
C453        S459   1.647       .  A
C453        C458   1.373       .  A
C453        C454   1.385       .  A
C454        C455   1.382       .  A
C454        H465   1.082       .  S
C455        C464   1.348       .  A
C455        C456   1.371       .  A
C456        S462   1.720       .  A
C456        C457   1.416       .  A
C457        C458   1.412       .  A
C457        H466   1.067       .  S
C458        C461   1.401       .  A
S459        C460   1.747       .  A
C460        C461   1.405       .  A
C461        H467   1.074       .  S
S462        C463   1.729       .  A
C463        C464   1.398       .  A
C464        H468   1.081       .  S
C469        S475   1.682       .  A
C469        C474   1.378       .  A
C469        C470   1.395       .  A
C470        C471   1.396       .  A
C470        H481   1.083       .  S
C471        C480   1.370       .  A
C471        C472   1.381       .  A
C472        S478   1.703       .  A
C472        C473   1.411       .  A
C473        C474   1.409       .  A
C473        H482   1.082       .  S
C474        C477   1.381       .  A
S475        C476   1.730       .  A
C476        C477   1.413       .  A
C477        H483   1.083       .  S
S478        C479   1.741       .  A
C479        C480   1.401       .  A
C480        H484   1.084       .  S
C485        S491   1.687       .  A
C485        C490   1.378       .  A
C485        C486   1.392       .  A
C486        C487   1.395       .  A
C486        H497   1.083       .  S
C487        C496   1.359       .  A
C487        C488   1.377       .  A
C488        S494   1.691       .  A
C488        C489   1.399       .  A
C489        C490   1.403       .  A
C489        H498   1.083       .  S
C490        C493   1.364       .  A
S491        C492   1.744       .  A
C492        C493   1.402       .  A
C493        H499   1.065       .  S
S494        C495   1.750       .  A
C495        C496   1.385       .  A
C496        H500   1.049       .  S
C501        S507   1.725       .  A
C501        C506   1.376       .  A
C501        C502   1.412       .  A
C502        C503   1.410       .  A
C502        H513   1.071   1_556  S
C503        C512   1.389       .  A
C503        C504   1.381       .  A
C504        S510   1.660       .  A
C504        C505   1.382       .  A
C505        C506   1.381       .  A
C505        H514   1.082       .  S
C506        C509   1.341       .  A
S507        C508   1.716       .  A
C508        C509   1.392       .  A
C509        H515   1.083       .  S
S510        C511   1.745       .  A
C511        C512   1.398       .  A
C512        H516   1.080       .  S
C517        S523   1.701       .  A
C517        C522   1.384       .  A
C517        C518   1.404       .  A
C518        C519   1.404       .  A
C518        H529   1.083       .  S
C519        C528   1.368       .  A
C519        C520   1.377       .  A
C520        S526   1.703       .  A
C520        C521   1.402       .  A
C521        C522   1.403       .  A
C521        H530   1.082       .  S
C522        C525   1.369       .  A
S523        C524   1.751       .  A
C524        C525   1.388       .  A
C525        H531   1.075       .  S
S526        C527   1.750       .  A
C527        C528   1.399       .  A
C528        H532   1.074       .  S
C533        S539   1.690       .  A
C533        C538   1.376       .  A
C533        C534   1.403       .  A
C534        C535   1.401       .  A
C534        H545   1.083       .  S
C535        C544   1.371       .  A
C535        C536   1.377       .  A
C536        S542   1.691       .  A
C536        C537   1.403       .  A
C537        C538   1.402       .  A
C537        H546   1.083       .  S
C538        C541   1.373       .  A
S539        C540   1.736       .  A
C540        C541   1.406       .  A
C541        H547   1.083       .  S
S542        C543   1.729       .  A
C543        C544   1.407       .  A
C544        H548   1.083       .  S
C549        S555   1.673       .  A
C549        C554   1.377       .  A
C549        C550   1.396       .  A
C550        C551   1.393       .  A
C550        H561   1.083       .  S
C551        C560   1.370       .  A
C551        C552   1.374       .  A
C552        S558   1.685       .  A
C552        C553   1.406       .  A
C553        C554   1.402       .  A
C553        H562   1.082       .  S
C554        C557   1.379       .  A
S555        C556   1.736       .  A
C556        C557   1.407       .  A
C557        H563   1.083       .  S
S558        C559   1.744       .  A
C559        C560   1.404       .  A
C560        H564   1.084       .  S
C565        S571   1.761       .  A
C565        C570   1.370       .  A
C565        C566   1.443       .  A
C566        C567   1.441       .  A
C566        H577   1.080       .  S
C567        C576   1.419       .  A
C567        C568   1.382       .  A
C568        S574   1.669       .  A
C568        C569   1.381       .  A
C569        C570   1.381       .  A
C569        H578   1.082       .  S
C570        C573   1.346       .  A
S571        C572   1.747       .  A
C572        C573   1.403       .  A
C573        H579   1.083       .  S
S574        C575   1.738       .  A
C575        C576   1.419       .  A
C576        H580   1.081       .  S
C581        S587   1.666       .  A
C581        C586   1.383       .  A
C581        C582   1.381       .  A
C582        C583   1.381       .  A
C582        H593   1.081       .  S
C583        C592   1.344       .  A
C583        C584   1.376       .  A
C584        S590   1.737       .  A
C584        C585   1.424       .  A
C585        C586   1.422       .  A
C585        H594   1.077       .  S
C586        C589   1.399       .  A
S587        C588   1.742       .  A
C588        C589   1.397       .  A
C589        H595   1.073       .  S
S590        C591   1.729       .  A
C591        C592   1.395       .  A
C592        H596   1.083       .  S
C597        S603   1.688       .  A
C597        C602   1.376       .  A
C597        C598   1.406       .  A
C598        C599   1.403       .  A
C598        H609   1.083       .  S
C599        C608   1.375       .  A
C599        C600   1.379       .  A
C600        S606   1.671       .  A
C600        C601   1.391       .  A
C601        C602   1.390       .  A
C601        H610   1.083       .  S
C602        C605   1.364       .  A
S603        C604   1.737       .  A
C604        C605   1.398       .  A
C605        H611   1.084       .  S
S606        C607   1.728       .  A
C607        C608   1.407       .  A
C608        H612   1.083       .  S
C613        S619   1.712       .  A
C613        C618   1.376       .  A
C613        C614   1.398       .  A
C614        C615   1.406       .  A
C614        H625   1.083       .  S
C615        C624   1.359       .  A
C615        C616   1.374       .  A
C616        S622   1.715       .  A
C616        C617   1.400       .  A
C617        C618   1.409       .  A
C617        H626   1.083       .  S
C618        C621   1.361       .  A
S619        C620   1.755       .  A
C620        C621   1.396       .  A
C621        H627   1.070       .  S
S622        C623   1.757       .  A
C623        C624   1.386       .  A
C624        H628   1.073       .  S
C629        S635   1.700       .  A
C629        C634   1.376       .  A
C629        C630   1.404       .  A
C630        C631   1.404       .  A
C630        H641   1.083       .  S
C631        C640   1.367       .  A
C631        C632   1.374       .  A
C632        S638   1.714       .  A
C632        C633   1.411       .  A
C633        C634   1.413       .  A
C633        H642   1.082       .  S
C634        C637   1.379       .  A
S635        C636   1.758       .  A
C636        C637   1.408       .  A
C637        H643   1.078       .  S
S638        C639   1.742       .  A
C639        C640   1.403       .  A
C640        H644   1.081       .  S
C645        S651   1.709       .  A
C645        C650   1.380       .  A
C645        C646   1.411       .  A
C646        C647   1.407       .  A
C646        H657   1.082       .  S
C647        C656   1.383       .  A
C647        C648   1.374       .  A
C648        S654   1.712       .  A
C648        C649   1.415       .  A
C649        C650   1.415       .  A
C649        H658   1.082       .  S
C650        C653   1.387       .  A
S651        C652   1.754       .  A
C652        C653   1.409       .  A
C653        H659   1.075       .  S
S654        C655   1.745   1_655  A
C655        C656   1.406   1_455  A
C656        H660   1.082   1_655  S
C661        S667   1.693       .  A
C661        C666   1.374       .  A
C661        C662   1.408       .  A
C662        C663   1.408       .  A
C662        H673   1.083       .  S
C663        C672   1.382       .  A
C663        C664   1.369       .  A
C664        S670   1.702       .  A
C664        C665   1.415       .  A
C665        C666   1.414       .  A
C665        H674   1.082       .  S
C666        C669   1.394       .  A
S667        C668   1.743       .  A
C668        C669   1.415       .  A
C669        H675   1.083       .  S
S670        C671   1.757       .  A
C671        C672   1.415       .  A
C672        H676   1.066       .  S
C677        S683   1.635       .  A
C677        C682   1.372       .  A
C677        C678   1.364       .  A
C678        C679   1.370       .  A
C678        H689   1.086       .  S
C679        C688   1.340       .  A
C679        C680   1.373       .  A
C680        S686   1.738       .  A
C680        C681   1.439       .  A
C681        C682   1.436       .  A
C681        H690   1.082       .  S
C682        C685   1.409       .  A
S683        C684   1.732       .  A
C684        C685   1.423       .  A
C685        H691   1.082       .  S
S686        C687   1.773       .  A
C687        C688   1.387       .  A
C688        H692   1.068       .  S
C693        S699   1.737       .  A
C693        C698   1.367       .  A
C693        C694   1.424       .  A
C694        C695   1.421       .  A
C694        H705   1.069       .  S
C695        C704   1.404       .  A
C695        C696   1.376       .  A
C696        S702   1.664       .  A
C696        C697   1.387       .  A
C697        C698   1.389       .  A
C697        H706   1.084       .  S
C698        C701   1.347       .  A
S699        C700   1.732       .  A
C700        C701   1.406       .  A
C701        H707   1.077       .  S
S702        C703   1.746       .  A
C703        C704   1.408       .  A
C704        H708   1.079       .  S
C709        S715   1.691       .  A
C709        C714   1.386       .  A
C709        C710   1.388       .  A
C710        C711   1.391       .  A
C710        H721   1.084       .  S
C711        C720   1.346       .  A
C711        C712   1.367       .  A
C712        S718   1.721       .  A
C712        C713   1.419       .  A
C713        C714   1.422       .  A
C713        H722   1.082       .  S
C714        C717   1.383       .  A
S715        C716   1.729       .  A
C716        C717   1.405       .  A
C717        H723   1.083       .  S
S718        C719   1.758       .  A
C719        C720   1.394       .  A
C720        H724   1.075       .  S
C725        S731   1.687       .  A
C725        C730   1.377       .  A
C725        C726   1.393       .  A
C726        C727   1.398       .  A
C726        H737   1.083       .  S
C727        C736   1.360       .  A
C727        C728   1.377       .  A
C728        S734   1.685       .  A
C728        C729   1.397       .  A
C729        C730   1.398       .  A
C729        H738   1.083       .  S
C730        C733   1.361       .  A
S731        C732   1.749       .  A
C732        C733   1.391       .  A
C733        H739   1.073       .  S
S734        C735   1.748       .  A
C735        C736   1.402       .  A
C736        H740   1.067       .  S
C741        S747   1.703   1_554  A
C741        C746   1.382       .  A
C741        C742   1.403       .  A
C742        C743   1.403       .  A
C742        H753   1.082       .  S
C743        C752   1.372       .  A
C743        C744   1.382       .  A
C744        S750   1.688   1_554  A
C744        C745   1.396       .  A
C745        C746   1.396       .  A
C745        H754   1.083       .  S
C746        C749   1.363       .  A
S747        C748   1.748       .  A
C748        C749   1.375   1_556  A
C749        H755   1.077       .  S
S750        C751   1.751       .  A
C751        C752   1.387   1_556  A
C752        H756   1.076       .  S
C757        S763   1.644       .  A
C757        C762   1.383       .  A
C757        C758   1.369       .  A
C758        C759   1.368       .  A
C758        H769   1.083       .  S
C759        C768   1.333       .  A
C759        C760   1.375       .  A
C760        S766   1.738   1_455  A
C760        C761   1.429   1_455  A
C761        C762   1.429   1_655  A
C761        H770   1.081       .  S
C762        C765   1.406       .  A
S763        C764   1.738       .  A
C764        C765   1.411       .  A
C765        H771   1.081   1_455  S
S766        C767   1.740   1_655  A
C767        C768   1.386       .  A
C768        H772   1.084       .  S
C773        S779   1.659       .  A
C773        C778   1.383       .  A
C773        C774   1.367       .  A
C774        C775   1.372       .  A
C774        H785   1.084       .  S
C775        C784   1.322       .  A
C775        C776   1.377       .  A
C776        S782   1.736       .  A
C776        C777   1.418       .  A
C777        C778   1.420       .  A
C777        H786   1.082       .  S
C778        C781   1.383       .  A
S779        C780   1.733       .  A
C780        C781   1.398       .  A
C781        H787   1.077       .  S
S782        C783   1.737       .  A
C783        C784   1.387       .  A
C784        H788   1.083       .  S
C789        S795   1.706       .  A
C789        C794   1.373       .  A
C789        C790   1.414       .  A
C790        C791   1.413       .  A
C790        H801   1.083       .  S
C791        C800   1.386       .  A
C791        C792   1.376       .  A
C792        S798   1.696       .  A
C792        C793   1.405       .  A
C793        C794   1.405       .  A
C793        H802   1.083       .  S
C794        C797   1.379       .  A
S795        C796   1.751       .  A
C796        C797   1.416       .  A
C797        H803   1.081       .  S
S798        C799   1.734       .  A
C799        C800   1.418       .  A
C800        H804   1.083       .  S
C805        S811   1.707       .  A
C805        C810   1.379       .  A
C805        C806   1.403       .  A
C806        C807   1.407       .  A
C806        H817   1.083       .  S
C807        C816   1.371       .  A
C807        C808   1.379       .  A
C808        S814   1.702       .  A
C808        C809   1.400       .  A
C809        C810   1.403       .  A
C809        H818   1.083       .  S
C810        C813   1.369       .  A
S811        C812   1.752       .  A
C812        C813   1.390       .  A
C813        H819   1.077       .  S
S814        C815   1.747       .  A
C815        C816   1.408       .  A
C816        H820   1.066       .  S
C821        S827   1.752   1_455  A
C821        C826   1.372       .  A
C821        C822   1.440   1_455  A
C822        C823   1.436   1_655  A
C822        H833   1.082       .  S
C823        C832   1.416       .  A
C823        C824   1.379       .  A
C824        S830   1.674       .  A
C824        C825   1.387       .  A
C825        C826   1.388       .  A
C825        H834   1.082       .  S
C826        C829   1.355       .  A
S827        C828   1.760   1_655  A
C828        C829   1.404       .  A
C829        H835   1.084       .  S
S830        C831   1.741       .  A
C831        C832   1.419       .  A
C832        H836   1.080   1_455  S
C837        S843   1.690       .  A
C837        C842   1.379       .  A
C837        C838   1.401       .  A
C838        C839   1.400       .  A
C838        H849   1.083       .  S
C839        C848   1.371       .  A
C839        C840   1.377       .  A
C840        S846   1.696       .  A
C840        C841   1.405       .  A
C841        C842   1.406       .  A
C841        H850   1.082       .  S
C842        C845   1.379       .  A
S843        C844   1.736       .  A
C844        C845   1.409       .  A
C845        H851   1.084       .  S
S846        C847   1.741       .  A
C847        C848   1.403       .  A
C848        H852   1.083       .  S
C853        S859   1.699       .  A
C853        C858   1.383       .  A
C853        C854   1.401       .  A
C854        C855   1.403       .  A
C854        H865   1.083       .  S
C855        C864   1.369       .  A
C855        C856   1.381       .  A
C856        S862   1.703       .  A
C856        C857   1.402       .  A
C857        C858   1.403       .  A
C857        H866   1.083       .  S
C858        C861   1.369       .  A
S859        C860   1.743       .  A
C860        C861   1.384       .  A
C861        H867   1.079       .  S
S862        C863   1.749       .  A
C863        C864   1.391       .  A
C864        H868   1.077       .  S
C869        S875   1.671       .  A
C869        C874   1.382       .  A
C869        C870   1.385       .  A
C870        C871   1.384       .  A
C870        H881   1.082       .  S
C871        C880   1.347       .  A
C871        C872   1.374       .  A
C872        S878   1.745       .  A
C872        C873   1.429       .  A
C873        C874   1.427       .  A
C873        H882   1.076       .  S
C874        C877   1.405       .  A
S875        C876   1.742       .  A
C876        C877   1.409       .  A
C877        H883   1.079       .  S
S878        C879   1.737       .  A
C879        C880   1.399       .  A
C880        H884   1.082       .  S
C885        S891   1.699       .  A
C885        C890   1.380       .  A
C885        C886   1.403       .  A
C886        C887   1.403       .  A
C886        H897   1.083       .  S
C887        C896   1.370       .  A
C887        C888   1.382       .  A
C888        S894   1.687       .  A
C888        C889   1.390       .  A
C889        C890   1.395       .  A
C889        H898   1.083       .  S
C890        C893   1.358       .  A
S891        C892   1.746       .  A
C892        C893   1.385       .  A
C893        H899   1.074       .  S
S894        C895   1.745       .  A
C895        C896   1.391       .  A
C896        H900   1.074       .  S
C901        S907   1.701       .  A
C901        C906   1.378       .  A
C901        C902   1.403       .  A
C902        C903   1.405       .  A
C902        H913   1.083       .  S
C903        C912   1.371       .  A
C903        C904   1.374       .  A
C904        S910   1.691       .  A
C904        C905   1.401       .  A
C905        C906   1.402       .  A
C905        H914   1.083       .  S
C906        C909   1.370       .  A
S907        C908   1.752       .  A
C908        C909   1.401       .  A
C909        H915   1.066       .  S
S910        C911   1.747       .  A
C911        C912   1.409       .  A
C912        H916   1.066       .  S
