geometry optimzed in LAMMPS
_audit_creation_date              2020-11-30 
_audit_creation_method            'lammps2cif' 
_symmetry_space_group_name_H-M    'P1' 
_symmetry_Int_Tables_number       1 
_symmetry_cell_setting            triclinic 
loop_ 
_symmetry_equiv_pos_as_xyz 
  x,y,z 
_cell_length_a                    23.37846587 
_cell_length_b                    22.811932432149806 
_cell_length_c                    22.900825165022447 
_cell_angle_alpha                 90.36713131822248 
_cell_angle_beta                  90.00911705633983 
_cell_angle_gamma                 90.01431667852843 
loop_ 
_atom_site_label 
_atom_site_type_symbol 
_atom_site_fract_x 
_atom_site_fract_y 
_atom_site_fract_z 
_atom_site_charge 
C1          C  0.33011653  0.34371046  0.17003400    -0.04000
C2          C  0.32992921  0.17021766  0.34039199    -0.04000
C3          C  0.17836682  0.16981276  0.16614461    -0.04000
C4          C  0.17668427  0.34278734  0.34278415    -0.04000
C5          C  0.31105833  0.16745516  0.66376232    -0.04000
C6          C  0.17133703  0.16940633  0.83839876    -0.04000
C7          C  0.17131295  0.34534506  0.67038026    -0.04000
C8          C  0.31056667  0.34859986  0.84552646    -0.04000
N9          N  0.42602389  0.43788751  0.89599564    -0.07700
N10         N  0.40723520  0.40113145  0.85501718    -0.59800
N11         N  0.38953793  0.57257961  0.93649444    -0.07400
N12         N  0.34839044  0.61032902  0.92619655    -0.61900
N13         N  0.42691218  0.57204363  0.89370138    -0.07000
N14         N  0.41158066  0.60968299  0.85289697    -0.59800
N15         N  0.39024706  0.43898987  0.94019755    -0.06600
N16         N  0.34758638  0.40272920  0.93088747    -0.62300
C17         C  0.35883607  0.37797794  0.87845040     0.94500
C18         C  0.36309293  0.63415677  0.87468396     0.94300
N19         N  0.42793039  0.58113620  0.11517647    -0.07900
N20         N  0.40881398  0.61877375  0.15514090    -0.60400
N21         N  0.39332425  0.44489050  0.07594343    -0.06000
N22         N  0.35467370  0.40432495  0.08526945    -0.61600
N23         N  0.43061147  0.44690281  0.11885741    -0.07900
N24         N  0.41763679  0.40737883  0.15870653    -0.60600
N25         N  0.39170257  0.57837149  0.07132380    -0.05600
N26         N  0.34894055  0.61458240  0.07954982    -0.61700
Mn27       Mn  0.39073978  0.50860233  0.00624258     1.18400
C28         C  0.36010605  0.64074871  0.13109943     0.96600
C29         C  0.37077156  0.38034105  0.13620774     0.97200
N30         N  0.56307701  0.57169404  0.89353164    -0.07900
N31         N  0.57781813  0.60941006  0.85251485    -0.64200
N32         N  0.60050718  0.43954799  0.94001408    -0.06700
N33         N  0.64240901  0.40270705  0.92921910    -0.64900
N34         N  0.56240926  0.43808675  0.89770182    -0.07400
N35         N  0.57792954  0.39988413  0.85715445    -0.64500
N36         N  0.60124544  0.57210395  0.93570489    -0.06300
N37         N  0.64219115  0.60982164  0.92468773    -0.65200
Mn38       Mn  0.49475326  0.50488942  0.89310421     1.10700
C39         C  0.62674284  0.63370609  0.87348948     0.97800
C40         C  0.62741428  0.37748969  0.87816229     0.97900
N41         N  0.56577388  0.44795573  0.12026312    -0.07400
N42         N  0.58047871  0.41207994  0.16278012    -0.62800
N43         N  0.60285925  0.57880970  0.07087257    -0.06700
N44         N  0.64583940  0.61486982  0.07898462    -0.59500
N45         N  0.56681385  0.58170480  0.11487061    -0.08100
N46         N  0.58621909  0.61922770  0.15479747    -0.62400
N47         N  0.60322231  0.44496556  0.07752664    -0.07000
N48         N  0.64396322  0.40701942  0.08999548    -0.59600
Mn49       Mn  0.49762045  0.51494881  0.11962748     1.20200
Mn50       Mn  0.60257968  0.50856609  0.00595790     1.10100
Cl51       Cl  0.49646499  0.50929226  0.00624784    -0.87500
C52         C  0.62876180  0.38582980  0.14278945     0.94800
C53         C  0.63491215  0.64107680  0.13062077     0.94600
C54         C  0.31109841  0.66898414  0.16322609    -0.04000
C55         C  0.17001111  0.84778536  0.17568887    -0.04000
C56         C  0.17081020  0.66550019  0.33473784    -0.04000
C57         C  0.31071052  0.84527495  0.34809348    -0.04000
N58         N  0.42623705  0.07745233  0.61456686    -0.07700
N59         N  0.40759111  0.11473789  0.65512018    -0.59800
N60         N  0.38965536  0.94254457  0.57468699    -0.07400
N61         N  0.34865107  0.90461626  0.58496770    -0.61900
N62         N  0.42708033  0.94316787  0.61744344    -0.07000
N63         N  0.41191511  0.90538977  0.65821991    -0.59800
N64         N  0.39058868  0.07620655  0.57026322    -0.06600
N65         N  0.34822733  0.11291222  0.57899932    -0.62300
C66         C  0.35946075  0.13804670  0.63124176     0.94500
C67         C  0.36346486  0.88076178  0.63643711     0.94300
N68         N  0.42771729  0.93337093  0.39600928    -0.07900
N69         N  0.40847587  0.89570240  0.35611226    -0.60400
N70         N  0.39329134  0.06975511  0.43491125    -0.06000
N71         N  0.35466321  0.11030789  0.42553425    -0.61600
N72         N  0.43049718  0.06758537  0.39196081    -0.07900
N73         N  0.41748760  0.10696096  0.35201505    -0.60600
N74         N  0.39146131  0.93635146  0.43981911    -0.05600
N75         N  0.34851222  0.90032638  0.43158938    -0.61700
Mn76       Mn  0.39078743  0.00629007  0.50469649     1.18400
C77         C  0.35963016  0.87398718  0.38011499     0.96600
C78         C  0.37072107  0.13412458  0.37451103     0.97200
N79         N  0.56328718  0.94368819  0.61705385    -0.07900
N80         N  0.57801007  0.90568971  0.65779758    -0.64200
N81         N  0.60060449  0.07583113  0.57055585    -0.06700
N82         N  0.64258248  0.11259161  0.58143661    -0.64900
N83         N  0.56254370  0.07726701  0.61289962    -0.07400
N84         N  0.57812458  0.11540068  0.65350064    -0.64500
N85         N  0.60130539  0.94331674  0.57475535    -0.06300
N86         N  0.64207159  0.90531880  0.58535116    -0.65200
Mn87       Mn  0.49494139  0.01042823  0.61769160     1.10700
C88         C  0.62670349  0.88124121  0.63645227     0.97800
C89         C  0.62764250  0.13774351  0.63254245     0.97900
N90         N  0.56556711  0.06674951  0.39009875    -0.07400
N91         N  0.58035563  0.10209340  0.34715844    -0.62800
N92         N  0.60294922  0.93630650  0.43987195    -0.06700
N93         N  0.64592907  0.90024645  0.43188382    -0.59500
N94         N  0.56672687  0.93300284  0.39604572    -0.08100
N95         N  0.58600790  0.89519409  0.35633147    -0.62400
N96         N  0.60308692  0.07008154  0.43276781    -0.07000
N97         N  0.64398375  0.10769415  0.41979347    -0.59600
Mn98       Mn  0.49744848  0.99962152  0.39122296     1.20200
Mn99       Mn  0.60261111  0.00674079  0.50458603     1.10100
Cl100      Cl  0.49648709  0.00571335  0.50454523    -0.87500
C101        C  0.62879461  0.12834887  0.36677263     0.94800
C102        C  0.63482779  0.87361733  0.38049382     0.94600
C103        C  0.66921491  0.34291494  0.84319278    -0.04000
C104        C  0.82127765  0.34606810  0.66907038    -0.04000
C105        C  0.66934351  0.17257990  0.66742916    -0.04000
C106        C  0.82209335  0.17027244  0.84097514    -0.04000
C107        C  0.32149028  0.66981695  0.84057188    -0.04000
C108        C  0.32191726  0.84483764  0.67040964    -0.04000
C109        C  0.16966482  0.67082698  0.66599146    -0.04000
C110        C  0.16874971  0.84315263  0.84375614    -0.04000
C111        C  0.68380963  0.84510241  0.34845308    -0.04000
C112        C  0.82347271  0.66459705  0.33259186    -0.04000
C113        C  0.68394306  0.66946945  0.16272961    -0.04000
C114        C  0.82343954  0.85076610  0.17855102    -0.04000
C115        C  0.66812425  0.66930336  0.83906609    -0.04000
C116        C  0.82104560  0.67163578  0.66510287    -0.04000
C117        C  0.66817897  0.84560679  0.67060375    -0.04000
C118        C  0.82093612  0.84344119  0.84435683    -0.04000
N119        N  0.06148061  0.90091379  0.07915026    -0.07700
N120        N  0.10073231  0.86117701  0.09132825    -0.59800
N121        N  0.93091020  0.94478059  0.11966717    -0.07400
N122        N  0.89170623  0.93500326  0.15998764    -0.61900
N123        N  0.93030156  0.90275814  0.08002148    -0.07000
N124        N  0.89072369  0.86367114  0.09281161    -0.59800
N125        N  0.06225617  0.94302927  0.11867946    -0.06600
N126        N  0.10227096  0.93285906  0.15811932    -0.62300
C127        C  0.12670642  0.88201258  0.14016901     0.94500
C128        C  0.86614434  0.88465614  0.14224222     0.94300
N129        N  0.93166609  0.12340633  0.07576809    -0.07900
N130        N  0.88932768  0.16100560  0.08457290    -0.60400
N131        N  0.06385406  0.08058382  0.11540900    -0.06000
N132        N  0.10570926  0.08942593  0.15302696    -0.61600
N133        N  0.06391275  0.12128054  0.07497715    -0.07900
N134        N  0.10570750  0.15911323  0.08477885    -0.60600
N135        N  0.93245178  0.08394863  0.11743636    -0.05600
N136        N  0.89119331  0.09437483  0.15551643    -0.61700
Mn137      Mn  0.99729331  0.01321962  0.11926072     1.18400
C138        C  0.86445841  0.14274028  0.13489108     0.96600
C139        C  0.13189152  0.13820347  0.13319440     0.97200
N140        N  0.92943471  0.89797259  0.94052953    -0.07900
N141        N  0.89073582  0.85740067  0.92829719    -0.64200
N142        N  0.06021981  0.93774808  0.89922018    -0.06700
N143        N  0.09929601  0.92630709  0.85924179    -0.64900
N144        N  0.05998207  0.89691222  0.93955322    -0.07400
N145        N  0.09859782  0.85635761  0.92724897    -0.64500
N146        N  0.92936418  0.93869369  0.90005869    -0.06300
N147        N  0.89028222  0.92705031  0.86004535    -0.65200
Mn148      Mn  0.99527061  0.89800286  0.01000270     1.10700
C149        C  0.86618780  0.87644528  0.87824716     0.97800
C150        C  0.12320004  0.87564552  0.87731977     0.97900
N151        N  0.06305331  0.11791447  0.93612546    -0.07400
N152        N  0.10307970  0.15669592  0.92361443    -0.62800
N153        N  0.93081225  0.07705843  0.89754350    -0.06700
N154        N  0.89095768  0.08670242  0.85792051    -0.59500
N155        N  0.93202372  0.11986688  0.93631861    -0.08100
N156        N  0.89341172  0.15994265  0.92328144    -0.62400
N157        N  0.06213790  0.07609802  0.89629806    -0.07000
N158        N  0.10152511  0.08575996  0.85603203    -0.59600
Mn159      Mn  0.99762239  0.12242781  0.00587847     1.20200
Mn160      Mn  0.99556770  0.00740472  0.89713514     1.10100
Cl161      Cl  0.99632084  0.01024500  0.00806878    -0.87500
C162        C  0.12755704  0.13579988  0.87401548     0.94800
C163        C  0.86775066  0.13842934  0.87459853     0.94600
C164        C  0.66816810  0.16403353  0.32879057    -0.04000
C165        C  0.80990720  0.16868660  0.16150049    -0.04000
C166        C  0.66803531  0.34964455  0.18036559    -0.04000
C167        C  0.80951189  0.34563165  0.34813023    -0.04000
N168        N  0.06192985  0.61300100  0.43091724    -0.07700
N169        N  0.10163725  0.65232560  0.41902334    -0.59800
N170        N  0.93098627  0.57012437  0.39053553    -0.07400
N171        N  0.89152660  0.58009499  0.35052813    -0.61900
N172        N  0.93085225  0.61217260  0.43016875    -0.07000
N173        N  0.89142014  0.65148000  0.41766892    -0.59800
N174        N  0.06234310  0.57099418  0.39126202    -0.06600
N175        N  0.10252937  0.58089624  0.35195968    -0.62300
C176        C  0.12749042  0.63138331  0.37021166     0.94500
C177        C  0.86639719  0.63060557  0.36844538     0.94300
N178        N  0.93090833  0.39130191  0.43408401    -0.07900
N179        N  0.88870025  0.35357307  0.42518394    -0.60400
N180        N  0.06307289  0.43322442  0.39396778    -0.06000
N181        N  0.10444614  0.42372939  0.35594366    -0.61600
N182        N  0.06288043  0.39248939  0.43436842    -0.07900
N183        N  0.10395249  0.35395906  0.42411928    -0.60600
N184        N  0.93175005  0.43074101  0.39239997    -0.05600
N185        N  0.89061988  0.42017409  0.35419648    -0.61700
Mn186      Mn  0.99695471  0.50118960  0.39052555     1.18400
C187        C  0.86392543  0.37175620  0.37480869     0.96600
C188        C  0.12996558  0.37442899  0.37542497     0.97200
N189        N  0.93004642  0.61710392  0.56945938    -0.07900
N190        N  0.89130303  0.65767818  0.58150072    -0.64200
N191        N  0.06085860  0.57655470  0.61047945    -0.06700
N192        N  0.10013459  0.58773788  0.65034153    -0.64900
N193        N  0.06073864  0.61739902  0.57019284    -0.07400
N194        N  0.09962222  0.65773607  0.58238375    -0.64500
N195        N  0.92978018  0.57637305  0.60989721    -0.06300
N196        N  0.89049231  0.58798653  0.64970847    -0.65200
Mn197      Mn  0.99587625  0.61655571  0.49999686     1.10700
C198        C  0.86648989  0.63861878  0.63141630     0.97800
C199        C  0.12430830  0.63825771  0.63219327     0.97900
N200        N  0.06254529  0.39655464  0.57326705    -0.07400
N201        N  0.10264213  0.35781003  0.58555899    -0.62800
N202        N  0.93064629  0.43820491  0.61225698    -0.06700
N203        N  0.89065014  0.42908449  0.65184283    -0.59500
N204        N  0.93145005  0.39534983  0.57352488    -0.08100
N205        N  0.89236315  0.35575793  0.58656033    -0.62400
N206        N  0.06196356  0.43847242  0.61299337    -0.07000
N207        N  0.10168634  0.42897343  0.65292408    -0.59600
Mn208      Mn  0.99689903  0.39210854  0.50379982     1.20200
Mn209      Mn  0.99575330  0.50737327  0.61256291     1.10100
Cl210      Cl  0.99621126  0.50430637  0.50162995    -0.87500
C211        C  0.12751676  0.37889143  0.63488182     0.94800
C212        C  0.86686129  0.37765362  0.63516353     0.94600
C213        C  0.71591055  0.40726428  0.32815632    -0.14900
C214        C  0.77432889  0.39642009  0.31823265     0.07200
C215        C  0.79354791  0.41716365  0.26285337    -0.14900
C216        C  0.75485596  0.41761769  0.21542775    -0.14900
C217        C  0.69952792  0.39514431  0.22352071     0.07200
C218        C  0.67902341  0.41125502  0.27953365    -0.14900
H219        H  0.69907831  0.41339980  0.37147795     0.11200
H220        H  0.83867019  0.42125880  0.25325727     0.11200
H221        H  0.76834091  0.43330362  0.17324384     0.11200
H222        H  0.63562550  0.42589101  0.28562187     0.11200
C223        C  0.72271608  0.21169100  0.09936289    -0.14900
C224        C  0.78068595  0.21242396  0.11640185     0.07200
C225        C  0.80479167  0.26933110  0.11342639    -0.14900
C226        C  0.77094460  0.31729338  0.13168643    -0.14900
C227        C  0.71036323  0.31178882  0.13816924     0.07200
C228        C  0.68977384  0.26383280  0.10411174    -0.14900
H229        H  0.70346181  0.17288270  0.08098074     0.11200
H230        H  0.85081019  0.27452896  0.11577274     0.11200
H231        H  0.79545114  0.35507036  0.14179068     0.11200
H232        H  0.64742898  0.26466096  0.08555519     0.11200
C233        C  0.76986675  0.23356103  0.23687917    -0.14900
C234        C  0.82048747  0.21053230  0.21386625     0.07200
C235        C  0.87309034  0.23411411  0.23391920    -0.14900
C236        C  0.87298467  0.28031147  0.27595750    -0.14900
C237        C  0.82028052  0.30381684  0.29579482     0.07200
C238        C  0.76976493  0.28062704  0.27265398    -0.14900
H239        H  0.72869906  0.21823030  0.22223592     0.11200
H240        H  0.91327717  0.21791799  0.21686610     0.11200
H241        H  0.91309417  0.29656903  0.29317546     0.11200
H242        H  0.72850396  0.29578990  0.28718520     0.11200
C243        C  0.61204624  0.20131217  0.23306339    -0.14900
C244        C  0.62970017  0.20860452  0.29182792     0.07200
C245        C  0.61061976  0.26340087  0.31279407    -0.14900
C246        C  0.61092649  0.31168622  0.27519717    -0.14900
C247        C  0.62947271  0.30464071  0.21669679     0.07200
C248        C  0.61148069  0.24956096  0.19550489    -0.14900
H249        H  0.59142127  0.16215405  0.21780542     0.11200
H250        H  0.59198504  0.26863994  0.35539386     0.11200
H251        H  0.58980814  0.35068367  0.29015599     0.11200
H252        H  0.59316785  0.24406099  0.15278819     0.11200
C253        C  0.68922895  0.25049702  0.40446519    -0.14900
C254        C  0.71018044  0.20242670  0.37082060     0.07200
C255        C  0.77069035  0.19696849  0.37796831    -0.14900
C256        C  0.80440020  0.24503076  0.39629493    -0.14900
C257        C  0.78026422  0.30189343  0.39318526     0.07200
C258        C  0.72220789  0.30253251  0.40983516    -0.14900
H259        H  0.64675630  0.24968520  0.42267152     0.11200
H260        H  0.79522034  0.15907088  0.36849868     0.11200
H261        H  0.85043661  0.23989204  0.39429592     0.11200
H262        H  0.70291112  0.34119392  0.42845023     0.11200
C263        C  0.67968547  0.10157464  0.23022308    -0.14900
C264        C  0.69990953  0.11808362  0.28622684     0.07200
C265        C  0.75553108  0.09641776  0.29434463    -0.14900
C266        C  0.79421158  0.09722613  0.24692355    -0.14900
C267        C  0.77484295  0.11782159  0.19152672     0.07200
C268        C  0.71648094  0.10649271  0.18157298    -0.14900
H269        H  0.63639217  0.08652859  0.22413763     0.11200
H270        H  0.76913478  0.08074379  0.33649120     0.11200
H271        H  0.83936470  0.09351506  0.25653788     0.11200
H272        H  0.69959764  0.10074309  0.13821917     0.11200
C273        C  0.70005457  0.91798032  0.75486536    -0.14900
C274        C  0.71369697  0.89069673  0.70032183     0.07200
C275        C  0.77376715  0.88868170  0.69070805    -0.14900
C276        C  0.81255912  0.88586288  0.73791377    -0.14900
C277        C  0.79259746  0.88608299  0.79617097     0.07200
C278        C  0.74024749  0.91714914  0.80195815    -0.14900
H279        H  0.65631897  0.93038145  0.76428804     0.11200
H280        H  0.79243176  0.88678815  0.64823435     0.11200
H281        H  0.85681147  0.87579823  0.72843239     0.11200
H282        H  0.72889702  0.93738761  0.84303233     0.11200
C283        C  0.71548118  0.69118360  0.62235691    -0.14900
C284        C  0.77554714  0.70106349  0.62023529     0.07200
C285        C  0.78866064  0.75622392  0.59423385    -0.14900
C286        C  0.74812733  0.80317309  0.59609342    -0.14900
C287        C  0.69622191  0.79697566  0.62768626     0.15200
C288        C  0.67653254  0.73840035  0.62725511    -0.14900
H289        H  0.69711013  0.64835781  0.62247580     0.11200
H290        H  0.83225417  0.76626842  0.58196251     0.11200
H291        H  0.75914438  0.84464329  0.57670407     0.11200
H292        H  0.63244730  0.72860870  0.63768055     0.11200
C293        C  0.90285520  0.77878523  0.77949778    -0.14900
C294        C  0.84865944  0.79058829  0.80848179     0.07200
C295        C  0.80659034  0.75852443  0.78431114    -0.14900
C296        C  0.80651491  0.75645620  0.72521566    -0.14900
C297        C  0.84863299  0.72457635  0.70097968     0.07200
C298        C  0.90288652  0.73682693  0.72966852    -0.14900
H299        H  0.94201302  0.79870203  0.79497135     0.11200
H300        H  0.76893870  0.75106281  0.80724380     0.11200
H301        H  0.76880375  0.76370322  0.70232260     0.11200
H302        H  0.94211820  0.71727423  0.71396658     0.11200
C303        C  0.58485100  0.73272518  0.77563918    -0.14900
C304        C  0.63915283  0.70388965  0.78698681     0.07200
C305        C  0.68105538  0.72788602  0.75509963    -0.14900
C306        C  0.68109712  0.78700265  0.75453887    -0.14900
C307        C  0.63923101  0.81098744  0.72263937     0.07200
C308        C  0.58488851  0.78221102  0.73396387    -0.14900
H309        H  0.54578096  0.71736248  0.79547341     0.11200
H310        H  0.71879132  0.70504109  0.74723222     0.11200
H311        H  0.71885048  0.80986496  0.76241653     0.11200
H312        H  0.54585379  0.79759852  0.71408266     0.11200
C313        C  0.77376306  0.62639023  0.81884283    -0.14900
C314        C  0.71367275  0.62425328  0.80929825     0.07200
C315        C  0.70003760  0.59702233  0.75470667    -0.14900
C316        C  0.74019489  0.59797838  0.70756937    -0.14900
C317        C  0.79258786  0.62903978  0.71333332     0.07200
C318        C  0.81253861  0.62927867  0.77160914    -0.14900
H319        H  0.79245967  0.62835473  0.86130726     0.11200
H320        H  0.65630722  0.58455907  0.74529254     0.11200
H321        H  0.72881297  0.57772704  0.66650740     0.11200
H322        H  0.85678060  0.63944769  0.78108622     0.11200
C323        C  0.74807045  0.71189762  0.91346394    -0.14900
C324        C  0.69616315  0.71802124  0.88187520     0.07200
C325        C  0.67641557  0.77656558  0.88226878    -0.14900
C326        C  0.71534413  0.82381995  0.88700640    -0.14900
C327        C  0.77540516  0.81396906  0.88913021     0.07200
C328        C  0.78857410  0.75888000  0.91523527    -0.14900
H329        H  0.75913063  0.67044578  0.93285691     0.11200
H330        H  0.63231478  0.78629443  0.87186227     0.11200
H331        H  0.69694652  0.86661934  0.88672612     0.11200
H332        H  0.83218303  0.74888736  0.92748263     0.11200
C333        C  0.68888541  0.76907213  0.11255857    -0.14900
C334        C  0.71367526  0.71269583  0.11799219     0.07200
C335        C  0.77138548  0.71119568  0.10090581    -0.14900
C336        C  0.80388139  0.76347446  0.10325758    -0.14900
C337        C  0.78277805  0.81288615  0.13497512     0.07200
C338        C  0.72260660  0.81834371  0.12680770    -0.14900
H339        H  0.64280759  0.77397271  0.11409453     0.11200
H340        H  0.79093631  0.67161385  0.08475676     0.11200
H341        H  0.84642905  0.76271841  0.08536411     0.11200
H342        H  0.69919783  0.85801135  0.13060999     0.11200
C343        C  0.81180064  0.60073585  0.23535732    -0.14900
C344        C  0.79055167  0.61888751  0.29043414     0.07200
C345        C  0.73385636  0.59927911  0.29723945    -0.14900
C346        C  0.69675885  0.59888529  0.24854011    -0.14900
C347        C  0.71797347  0.61874634  0.19384652     0.07200
C348        C  0.77648792  0.60654064  0.18562908    -0.14900
H349        H  0.85532025  0.58588760  0.23047164     0.11200
H350        H  0.71917878  0.58227266  0.33836898     0.11200
H351        H  0.65123818  0.59481029  0.25612575     0.11200
H352        H  0.79458689  0.60063194  0.14283992     0.11200
C353        C  0.87785137  0.76575579  0.31414935    -0.14900
C354        C  0.85930441  0.71031704  0.29411771     0.07200
C355        C  0.87763715  0.70231989  0.23563458    -0.14900
C356        C  0.87851452  0.75012617  0.19740308    -0.14900
C357        C  0.85955167  0.80546348  0.21724441     0.07200
C358        C  0.87725827  0.81352749  0.27590916    -0.14900
H359        H  0.89694512  0.77189972  0.35638770     0.11200
H360        H  0.89799832  0.66288393  0.22081025     0.11200
H361        H  0.89790460  0.74409702  0.15528519     0.11200
H362        H  0.89754090  0.85297136  0.29088502     0.11200
C363        C  0.72170746  0.78022969  0.27388489    -0.14900
C364        C  0.67121250  0.80288346  0.29728293     0.07200
C365        C  0.61845294  0.77971154  0.27727335    -0.14900
C366        C  0.61849769  0.73448577  0.23409805    -0.14900
C367        C  0.67130554  0.71155797  0.21398398     0.07200
C368        C  0.72175765  0.73434421  0.23738763    -0.14900
H369        H  0.76299139  0.79541284  0.28831245     0.11200
H370        H  0.57835723  0.79552029  0.29478415     0.11200
H371        H  0.57842490  0.71851199  0.21665146     0.11200
H372        H  0.76307822  0.71935403  0.22289065     0.11200
C373        C  0.77625999  0.90831495  0.32537691    -0.14900
C374        C  0.71779398  0.89577482  0.31715444     0.07200
C375        C  0.69642054  0.91556514  0.26249305    -0.14900
C376        C  0.73349527  0.91564000  0.21378792    -0.14900
C377        C  0.79037866  0.89660578  0.22050145     0.07200
C378        C  0.81145532  0.91483500  0.27563140    -0.14900
H379        H  0.79444391  0.91387892  0.36817184     0.11200
H380        H  0.65086887  0.91931236  0.25492734     0.11200
H381        H  0.71864010  0.93262100  0.17270248     0.11200
H382        H  0.85490261  0.92994299  0.28055324     0.11200
C383        C  0.68874677  0.74557803  0.39876781    -0.14900
C384        C  0.71349524  0.80198695  0.39333351     0.07200
C385        C  0.77116241  0.80357509  0.41061161    -0.14900
C386        C  0.80367148  0.75128838  0.40847851    -0.14900
C387        C  0.78272952  0.70196406  0.37650990     0.07200
C388        C  0.72253182  0.69638390  0.38446321    -0.14900
H389        H  0.64267703  0.74060077  0.39712403     0.11200
H390        H  0.79065503  0.84322017  0.42671934     0.11200
H391        H  0.84617945  0.75202523  0.42650921     0.11200
H392        H  0.69913479  0.65676846  0.38033846     0.11200
C393        C  0.18360269  0.75802163  0.78448733    -0.14900
C394        C  0.14135241  0.78990012  0.80842047     0.07200
C395        C  0.08725339  0.77782334  0.77940089    -0.14900
C396        C  0.08750704  0.73583091  0.72969197    -0.14900
C397        C  0.14186182  0.72397445  0.70110827     0.07200
C398        C  0.18382262  0.75601027  0.72537082    -0.14900
H399        H  0.22113874  0.75069161  0.80769854     0.11200
H400        H  0.04798681  0.79754692  0.79478813     0.11200
H401        H  0.04841941  0.71593769  0.71399726     0.11200
H402        H  0.22148969  0.76349149  0.70244160     0.11200
C403        C  0.24294184  0.80137974  0.59557623    -0.14900
C404        C  0.29462009  0.79571027  0.62759892     0.07200
C405        C  0.31442713  0.73718710  0.62809060    -0.14900
C406        C  0.27555155  0.68984382  0.62386871    -0.14900
C407        C  0.21551612  0.69967492  0.62119683     0.07200
C408        C  0.20248070  0.75436282  0.59420576    -0.14900
H409        H  0.23188384  0.84267368  0.57582010     0.11200
H410        H  0.35845579  0.72764272  0.63896867     0.11200
H411        H  0.29396680  0.64708089  0.62520433     0.11200
H412        H  0.15894158  0.76419470  0.58158515     0.11200
C413        C  0.21575219  0.88706730  0.68976987    -0.14900
C414        C  0.27581360  0.88969646  0.69951262     0.07200
C415        C  0.28914144  0.91779848  0.75373330    -0.14900
C416        C  0.24889988  0.91717823  0.80078169    -0.14900
C417        C  0.19673063  0.88573874  0.79524289     0.07200
C418        C  0.17685315  0.88483746  0.73694076    -0.14900
H419        H  0.19714465  0.88400405  0.64732321     0.11200
H420        H  0.33277543  0.93063726  0.76310336     0.11200
H421        H  0.26012197  0.93782520  0.84170379     0.11200
H422        H  0.13267318  0.87438176  0.72749221     0.11200
C423        C  0.28958404  0.59666631  0.75702649    -0.14900
C424        C  0.27574504  0.62475945  0.81110769     0.07200
C425        C  0.21559250  0.62713482  0.82034089    -0.14900
C426        C  0.17704981  0.62913998  0.77284354    -0.14900
C427        C  0.19739041  0.62832075  0.71471834     0.07200
C428        C  0.24971104  0.59710052  0.70963479    -0.14900
H429        H  0.33333028  0.58399249  0.74803610     0.11200
H430        H  0.19662881  0.63015769  0.86261980     0.11200
H431        H  0.13275568  0.63939532  0.78190685     0.11200
H432        H  0.26132699  0.57649136  0.66881442     0.11200
C433        C  0.31337868  0.77736178  0.88290312    -0.14900
C434        C  0.29374887  0.71876974  0.88321459     0.07200
C435        C  0.24183105  0.71287746  0.91477118    -0.14900
C436        C  0.20121666  0.75972876  0.91578204    -0.14900
C437        C  0.21432020  0.81446031  0.88890897     0.07200
C438        C  0.27432915  0.82454308  0.88677984    -0.14900
H439        H  0.35746596  0.78708161  0.87243716     0.11200
H440        H  0.23074833  0.67153325  0.93441843     0.11200
H441        H  0.15760032  0.74972799  0.92799667     0.11200
H442        H  0.29261095  0.86738031  0.88562524     0.11200
C443        C  0.40490510  0.73298939  0.77703087    -0.14900
C444        C  0.35059475  0.70404412  0.78826440     0.07200
C445        C  0.30891029  0.72769888  0.75588223    -0.14900
C446        C  0.30879974  0.78685382  0.75492854    -0.14900
C447        C  0.35070736  0.81074475  0.72299746     0.07200
C448        C  0.40502497  0.78213850  0.73491052    -0.14900
H449        H  0.44387781  0.71796902  0.79731757     0.11200
H450        H  0.27136518  0.70462247  0.74767215     0.11200
H451        H  0.27110598  0.80975670  0.76280235     0.11200
H452        H  0.44415804  0.79745845  0.71518364     0.11200
C453        C  0.70255968  0.09738613  0.74783569    -0.14900
C454        C  0.71578203  0.12719149  0.69484531     0.07200
C455        C  0.77588490  0.13038746  0.68534907    -0.14900
C456        C  0.81479728  0.13102185  0.73264399    -0.14900
C457        C  0.79495938  0.12825675  0.79087559     0.07200
C458        C  0.74281950  0.09660003  0.79493294    -0.14900
H459        H  0.65895808  0.08415261  0.75662874     0.11200
H460        H  0.79458159  0.13534543  0.64321030     0.11200
H461        H  0.85893493  0.14194696  0.72368360     0.11200
H462        H  0.73154372  0.07487810  0.83502328     0.11200
C463        C  0.78799659  0.26448048  0.59440375    -0.14900
C464        C  0.77506156  0.31836385  0.62367180     0.07200
C465        C  0.71507684  0.32837015  0.62675042    -0.14900
C466        C  0.67614642  0.28102833  0.62894952    -0.14900
C467        C  0.69601872  0.22259989  0.62622639     0.07200
C468        C  0.74747041  0.21761941  0.59383969    -0.14900
H469        H  0.83149309  0.25475158  0.58149171     0.11200
H470        H  0.69672902  0.37106890  0.63004140     0.11200
H471        H  0.63213930  0.29028524  0.64025621     0.11200
H472        H  0.75847386  0.17671549  0.57273953     0.11200
C473        C  0.80696400  0.25976524  0.72565866    -0.14900
C474        C  0.84893057  0.29219700  0.70243837     0.07200
C475        C  0.90329332  0.27987677  0.73070458    -0.14900
C476        C  0.90352892  0.23701115  0.77907763    -0.14900
C477        C  0.84939172  0.22441306  0.80766701     0.07200
C478        C  0.80713620  0.25669458  0.78468077    -0.14900
H479        H  0.76941740  0.25237836  0.70235289     0.11200
H480        H  0.94246282  0.29999926  0.71566072     0.11200
H481        H  0.94287097  0.21705470  0.79385948     0.11200
H482        H  0.76959937  0.26374288  0.80806381     0.11200
C483        C  0.68193293  0.28729046  0.75658839    -0.14900
C484        C  0.64016431  0.31022084  0.78958364     0.07200
C485        C  0.58579938  0.28160107  0.77728031    -0.14900
C486        C  0.58585180  0.23334215  0.73367529    -0.14900
C487        C  0.64032120  0.20503121  0.72119649     0.07200
C488        C  0.68208614  0.22820645  0.75407711    -0.14900
H489        H  0.71940501  0.31064641  0.74892542     0.11200
H490        H  0.54658413  0.29621260  0.79772803     0.11200
H491        H  0.54664395  0.21852032  0.71333765     0.11200
H492        H  0.71974013  0.20511628  0.76158340     0.11200
C493        C  0.67677055  0.23453187  0.88172707    -0.14900
C494        C  0.69636338  0.29307912  0.88434528     0.07200
C495        C  0.74797275  0.29833257  0.91647440    -0.14900
C496        C  0.78868158  0.25163148  0.91583906    -0.14900
C497        C  0.77590108  0.19768130  0.88658696     0.07200
C498        C  0.71594236  0.18739143  0.88366770    -0.14900
H499        H  0.63275788  0.22503637  0.87060757     0.11200
H500        H  0.75890615  0.33929949  0.93750269     0.11200
H501        H  0.83218282  0.26154387  0.92863392     0.11200
H502        H  0.69777414  0.14460884  0.88026841     0.11200
C503        C  0.70161555  0.41825767  0.76253460    -0.14900
C504        C  0.71524177  0.38862280  0.81551906     0.07200
C505        C  0.77539945  0.38590401  0.82478675    -0.14900
C506        C  0.81415844  0.38557969  0.77734683    -0.14900
C507        C  0.79413501  0.38815469  0.71915566     0.07200
C508        C  0.74170257  0.41933445  0.71528776    -0.14900
H509        H  0.65789023  0.43114713  0.75388790     0.11200
H510        H  0.79426867  0.38104466  0.86686087     0.11200
H511        H  0.85839398  0.37497154  0.78616904     0.11200
H512        H  0.73012434  0.44098997  0.67525058     0.11200
C513        C  0.18915367  0.75421050  0.40873635    -0.14900
C514        C  0.21032209  0.70373771  0.37898470     0.07200
C515        C  0.27003264  0.69762139  0.38915168    -0.14900
C516        C  0.30430424  0.74709987  0.40108831    -0.14900
C517        C  0.28008890  0.80350739  0.39355540     0.07200
C518        C  0.22221241  0.80616170  0.41004555    -0.14900
H519        H  0.14640565  0.75557099  0.42615319     0.11200
H520        H  0.29182470  0.65686560  0.39033180     0.11200
H521        H  0.35032836  0.74155977  0.40060557     0.11200
H522        H  0.20296091  0.84638338  0.42492349     0.11200
C523        C  0.11606161  0.74659710  0.19698811    -0.14900
C524        C  0.13440363  0.80277787  0.21519893     0.07200
C525        C  0.11597237  0.81254698  0.27331531    -0.14900
C526        C  0.11601177  0.76608439  0.31316936    -0.14900
C527        C  0.13514368  0.71018235  0.29494404     0.07200
C528        C  0.11681252  0.70013001  0.23681279    -0.14900
H529        H  0.09652481  0.73905553  0.15518301     0.11200
H530        H  0.09527219  0.85235593  0.28668743     0.11200
H531        H  0.09651240  0.77336774  0.35501838     0.11200
H532        H  0.09663065  0.66006040  0.22339288     0.11200
C533        C  0.18352108  0.91272380  0.27226614    -0.14900
C534        C  0.20454440  0.89285237  0.21758330     0.07200
C535        C  0.26196363  0.91065594  0.21079503    -0.14900
C536        C  0.29868907  0.91282534  0.25975693    -0.14900
C537        C  0.27715522  0.89523312  0.31503420     0.07200
C538        C  0.21865546  0.90811419  0.32236004    -0.14900
H539        H  0.14014859  0.92807709  0.27679044     0.11200
H540        H  0.27722139  0.92741346  0.16994312     0.11200
H541        H  0.34427960  0.91649440  0.25235972     0.11200
H542        H  0.20042206  0.91565752  0.36484855     0.11200
C543        C  0.37661958  0.73497027  0.23377415    -0.14900
C544        C  0.32381867  0.71237694  0.21321351     0.07200
C545        C  0.27327552  0.73478056  0.23666341    -0.14900
C546        C  0.27317320  0.77909997  0.27474158    -0.14900
C547        C  0.32362514  0.80185169  0.29816523     0.07200
C548        C  0.37652483  0.77952376  0.27763089    -0.14900
H549        H  0.41672866  0.71908792  0.21634801     0.11200
H550        H  0.23193328  0.71974457  0.22211715     0.11200
H551        H  0.23173601  0.79389569  0.28923428     0.11200
H552        H  0.41656796  0.79561220  0.29505691     0.11200
C553        C  0.21968622  0.60508432  0.18861893    -0.14900
C554        C  0.27802109  0.61862123  0.19612098     0.07200
C555        C  0.29967904  0.60106846  0.25137520    -0.14900
C556        C  0.26284908  0.60269240  0.30024118    -0.14900
C557        C  0.20539468  0.62017050  0.29329473     0.07200
C558        C  0.18455234  0.60005703  0.23863637    -0.14900
H559        H  0.20162538  0.59732439  0.14608297     0.11200
H560        H  0.34528697  0.59782480  0.25885451     0.11200
H561        H  0.27805812  0.58597174  0.34115904     0.11200
H562        H  0.14129496  0.58432269  0.23408057     0.11200
C563        C  0.22229517  0.70744670  0.10111676    -0.14900
C564        C  0.28010231  0.71060722  0.11789833     0.07200
C565        C  0.30402894  0.76714550  0.11025344    -0.14900
C566        C  0.26935450  0.81647180  0.12137878    -0.14900
C567        C  0.20970672  0.80993673  0.13136775     0.07200
C568        C  0.18898303  0.75923222  0.10170778    -0.14900
H569        H  0.20327662  0.66700057  0.08653351     0.11200
H570        H  0.35001106  0.77303398  0.11088419     0.11200
H571        H  0.29062068  0.85751862  0.11938093     0.11200
H572        H  0.14630502  0.75756742  0.08409029     0.11200
C573        C  0.26563581  0.40606221  0.70410874    -0.14900
C574        C  0.20727875  0.39096694  0.71052150     0.07200
C575        C  0.18584844  0.41448688  0.76365953    -0.14900
C576        C  0.21996269  0.41173898  0.81472613    -0.14900
C577        C  0.27840056  0.39752459  0.80944524     0.07200
C578        C  0.30118216  0.41156121  0.75371596    -0.14900
H579        H  0.28295771  0.41919797  0.66299291     0.11200
H580        H  0.14249849  0.43028568  0.76674174     0.11200
H581        H  0.20100646  0.42164495  0.85642489     0.11200
H582        H  0.34697858  0.41401197  0.74711377     0.11200
C583        C  0.18748632  0.26098808  0.90926234    -0.14900
C584        C  0.20908425  0.20902635  0.88277913     0.07200
C585        C  0.26814285  0.20301054  0.89526147    -0.14900
C586        C  0.30265313  0.25308485  0.90302141    -0.14900
C587        C  0.27853136  0.30894273  0.89165742     0.07200
C588        C  0.22044814  0.31291479  0.90720447    -0.14900
H589        H  0.14447043  0.26317390  0.92598055     0.11200
H590        H  0.28790536  0.16182362  0.90339783     0.11200
H591        H  0.34864129  0.24738828  0.90399005     0.11200
H592        H  0.20086125  0.35408415  0.91850943     0.11200
C593        C  0.11805997  0.24462004  0.69660316    -0.14900
C594        C  0.13640949  0.30167977  0.71210445     0.07200
C595        C  0.11792424  0.31416873  0.76967481    -0.14900
C596        C  0.11738596  0.26952780  0.81158506    -0.14900
C597        C  0.13641925  0.21266168  0.79627168     0.07200
C598        C  0.11865146  0.19999437  0.73849449    -0.14900
H599        H  0.09816096  0.23507982  0.65541027     0.11200
H600        H  0.09793283  0.35486780  0.78136018     0.11200
H601        H  0.09718106  0.27886093  0.85266537     0.11200
H602        H  0.09907346  0.15913819  0.72658232     0.11200
C603        C  0.27366820  0.23635475  0.73488314    -0.14900
C604        C  0.32414219  0.21349013  0.71166998     0.07200
C605        C  0.37692531  0.23600558  0.73251396    -0.14900
C606        C  0.37680953  0.28073698  0.77647688    -0.14900
C607        C  0.32390638  0.30282483  0.79742290     0.07200
C608        C  0.27355029  0.27973680  0.77406553    -0.14900
H609        H  0.23234550  0.22110858  0.72058220     0.11200
H610        H  0.41701504  0.21963203  0.71544687     0.11200
H611        H  0.41681999  0.29737916  0.79350825     0.11200
H612        H  0.23211834  0.29466330  0.78836181     0.11200
C613        C  0.18801231  0.25431029  0.59905523    -0.14900
C614        C  0.20930952  0.30627347  0.62580885     0.07200
C615        C  0.26839125  0.31258361  0.61362178    -0.14900
C616        C  0.30305735  0.26265118  0.60583059    -0.14900
C617        C  0.27907454  0.20673743  0.61729174     0.07200
C618        C  0.22106734  0.20248012  0.60149064    -0.14900
H619        H  0.14507241  0.25199554  0.58211497     0.11200
H620        H  0.28808280  0.35388004  0.60578686     0.11200
H621        H  0.34902991  0.26851921  0.60498923     0.11200
H622        H  0.20163086  0.16119565  0.59027826     0.11200
C623        C  0.18665457  0.09998383  0.74551334    -0.14900
C624        C  0.20768336  0.12375844  0.79870025     0.07200
C625        C  0.26620063  0.10947819  0.80521724    -0.14900
C626        C  0.30190376  0.10471312  0.75570644    -0.14900
C627        C  0.27903201  0.11853872  0.69996609     0.07200
C628        C  0.22075905  0.10360676  0.69448926    -0.14900
H629        H  0.14344043  0.08376246  0.74231458     0.11200
H630        H  0.28355768  0.09631123  0.84631908     0.11200
H631        H  0.34771087  0.10286035  0.76242299     0.11200
H632        H  0.20189948  0.09389714  0.65269642     0.11200
C633        C  0.09646476  0.23493513  0.22921831    -0.14900
C634        C  0.15094653  0.22313517  0.20095027     0.07200
C635        C  0.19288573  0.25518578  0.22510978    -0.14900
C636        C  0.19251716  0.25739564  0.28417174    -0.14900
C637        C  0.15000218  0.28911445  0.30782275     0.07200
C638        C  0.09598937  0.27688065  0.27878459    -0.14900
H639        H  0.05738649  0.21501379  0.21341212     0.11200
H640        H  0.23050783  0.26278666  0.20209846     0.11200
H641        H  0.23002204  0.25031778  0.30750389     0.11200
H642        H  0.05657068  0.29651831  0.29400839     0.11200
C643        C  0.25056390  0.21359196  0.41476346    -0.14900
C644        C  0.30232297  0.21942339  0.38292114     0.07200
C645        C  0.32174325  0.27808574  0.38217782    -0.14900
C646        C  0.28249808  0.32516792  0.38581322    -0.14900
C647        C  0.22248816  0.31488447  0.38825193     0.07200
C648        C  0.20976566  0.26030468  0.41561206    -0.14900
H649        H  0.23963913  0.17229847  0.43461126     0.11200
H650        H  0.36575545  0.28789047  0.37145706     0.11200
H651        H  0.30063821  0.36804567  0.38410848     0.11200
H652        H  0.16624883  0.25018647  0.42807355     0.11200
C653        C  0.29804693  0.09637194  0.25743892    -0.14900
C654        C  0.28413171  0.12510254  0.31115965     0.07200
C655        C  0.22402128  0.12733782  0.32053620    -0.14900
C656        C  0.18541709  0.12847849  0.27308529    -0.14900
C657        C  0.20575727  0.12723264  0.21497064     0.07200
C658        C  0.25811588  0.09608273  0.21013716    -0.14900
H659        H  0.34182264  0.08374941  0.24852957     0.11200
H660        H  0.20511532  0.13114583  0.36276255     0.11200
H661        H  0.14111465  0.13875444  0.28207781     0.11200
H662        H  0.26973752  0.07512141  0.16949007     0.11200
C663        C  0.41397557  0.28180220  0.23445791    -0.14900
C664        C  0.35952123  0.31042522  0.22275828     0.07200
C665        C  0.31776821  0.28654727  0.25488189    -0.14900
C666        C  0.31794645  0.22742317  0.25557944    -0.14900
C667        C  0.35955140  0.20386855  0.28804996     0.07200
C668        C  0.41395378  0.23274228  0.27672219    -0.14900
H669        H  0.45319426  0.29702689  0.21461488     0.11200
H670        H  0.28003448  0.30935259  0.26301369     0.11200
H671        H  0.28049480  0.20423490  0.24710023     0.11200
H672        H  0.45311579  0.21768057  0.29680053     0.11200
C673        C  0.29657596  0.41728916  0.25251144    -0.14900
C674        C  0.28350125  0.38828295  0.19870600     0.07200
C675        C  0.22350395  0.38528931  0.18871274    -0.14900
C676        C  0.18445781  0.38382716  0.23575921    -0.14900
C677        C  0.20422621  0.38540251  0.29408441     0.07200
C678        C  0.25621274  0.41714129  0.29942032    -0.14900
H679        H  0.34012589  0.43045067  0.26184329     0.11200
H680        H  0.20501902  0.38115123  0.14631161     0.11200
H681        H  0.14034362  0.37308541  0.22631511     0.11200
H682        H  0.26726701  0.43820854  0.34018608     0.11200
C683        C  0.32331784  0.23570370  0.12832875    -0.14900
C684        C  0.30345525  0.29418587  0.12727229     0.07200
C685        C  0.25204237  0.29954396  0.09478789    -0.14900
C686        C  0.21154750  0.25255401  0.09366160    -0.14900
C687        C  0.22439900  0.19810746  0.12118046     0.07200
C688        C  0.28446505  0.18830698  0.12423553    -0.14900
H689        H  0.36729232  0.22627427  0.13952234     0.11200
H690        H  0.24103934  0.34074068  0.07478499     0.11200
H691        H  0.16808210  0.26233818  0.08076718     0.11200
H692        H  0.30292655  0.14558830  0.12599198     0.11200
loop_ 
_geom_bond_atom_site_label_1 
_geom_bond_atom_site_label_2 
_geom_bond_distance 
_geom_bond_site_symmetry_2 
_ccdc_geom_bond_type 
C1           C29   1.487       .  S
C1          C664   1.587       .  S
C1          C674   1.626       .  S
C1          C684   1.615       .  S
C2           C78   1.485       .  S
C2          C644   1.616       .  S
C2          C654   1.626       .  S
C2          C667   1.587       .  S
C3          C139   1.504       .  S
C3          C634   1.586       .  S
C3          C657   1.618       .  S
C3          C687   1.626       .  S
C4          C188   1.505       .  S
C4          C637   1.586       .  S
C4          C647   1.626       .  S
C4          C677   1.618       .  S
C5           C66   1.510       .  S
C5          C604   1.544       .  S
C5          C617   1.583       .  S
C5          C627   1.583       .  S
C6          C162   1.519       .  S
C6          C584   1.617       .  S
C6          C597   1.607       .  S
C6          C624   1.619       .  S
C7          C211   1.518       .  S
C7          C574   1.619       .  S
C7          C594   1.607       .  S
C7          C614   1.617       .  S
C8           C17   1.511       .  S
C8          C577   1.583       .  S
C8          C587   1.584       .  S
C8          C607   1.545       .  S
N9           N10   1.329       .  A
N9           N15   1.313       .  A
N9          Mn38   2.219       .  S
N10          C17   1.360       .  A
N11          N13   1.313       .  A
N11          N12   1.314       .  A
N11         Mn27   2.171   1_556  S
N12          C18   1.347       .  A
N13          N14   1.323       .  A
N13         Mn38   2.205       .  S
N14          C18   1.357       .  A
N15          N16   1.312       .  A
N15         Mn27   2.186   1_556  S
N16          C17   1.350       .  A
C18         C107   1.492       .  S
N19          N25   1.315       .  A
N19          N20   1.328       .  A
N19         Mn49   2.224       .  S
N20          C28   1.362       .  A
N21          N22   1.312       .  A
N21          N23   1.314       .  A
N21         Mn27   2.166       .  S
N22          C29   1.345       .  A
N23          N24   1.322       .  A
N23         Mn49   2.205       .  S
N24          C29   1.357       .  A
N25          N26   1.310       .  A
N25         Mn27   2.174       .  S
N26          C28   1.345       .  A
Mn27        Cl51   2.472       .  S
C28          C54   1.504       .  S
N30          N31   1.323       .  A
N30          N36   1.315       .  A
N30         Mn38   2.207       .  S
N31          C39   1.357       .  A
N32          N34   1.316       .  A
N32          N33   1.313       .  A
N32         Mn50   2.175   1_556  S
N33          C40   1.346       .  A
N34          N35   1.320       .  A
N34         Mn38   2.200       .  S
N35          C40   1.354       .  A
N36          N37   1.313       .  A
N36         Mn50   2.173   1_556  S
N37          C39   1.345       .  A
Mn38        Cl51   2.593   1_556  S
C39         C115   1.492       .  S
C40         C103   1.487       .  S
N41          N42   1.321       .  A
N41          N47   1.315       .  A
N41         Mn49   2.208       .  S
N42          C52   1.356       .  A
N43          N44   1.311       .  A
N43          N45   1.315       .  A
N43         Mn50   2.179       .  S
N44          C53   1.346       .  A
N45          N46   1.328       .  A
N45         Mn49   2.225       .  S
N46          C53   1.362       .  A
N47          N48   1.320       .  A
N47         Mn50   2.196       .  S
N48          C52   1.352       .  A
Mn49        Cl51   2.599       .  S
Mn50        Cl51   2.481       .  S
C52         C166   1.508       .  S
C53         C113   1.506       .  S
C54         C544   1.538       .  S
C54         C554   1.580       .  S
C54         C564   1.586       .  S
C55         C127   1.518       .  S
C55         C524   1.605       .  S
C55         C534   1.617       .  S
C55         C567   1.621       .  S
C56         C176   1.516       .  S
C56         C514   1.621       .  S
C56         C527   1.605       .  S
C56         C557   1.616       .  S
C57          C77   1.506       .  S
C57         C517   1.586       .  S
C57         C537   1.581       .  S
C57         C547   1.538       .  S
N58          N59   1.329       .  A
N58          N64   1.313       .  A
N58         Mn87   2.219       .  S
N59          C66   1.361       .  A
N60          N62   1.313       .  A
N60          N61   1.313       .  A
N60         Mn76   2.171   1_565  S
N61          C67   1.347       .  A
N62          N63   1.323       .  A
N62         Mn87   2.207   1_565  S
N63          C67   1.358       .  A
N64          N65   1.312       .  A
N64         Mn76   2.184       .  S
N65          C66   1.349       .  A
C67         C108   1.493       .  S
N68          N74   1.315       .  A
N68          N69   1.329       .  A
N68         Mn98   2.226       .  S
N69          C77   1.362       .  A
N70          N71   1.312       .  A
N70          N72   1.314       .  A
N70         Mn76   2.164       .  S
N71          C78   1.345       .  A
N72          N73   1.322       .  A
N72         Mn98   2.203   1_545  S
N73          C78   1.357       .  A
N74          N75   1.310       .  A
N74         Mn76   2.173   1_565  S
N75          C77   1.345       .  A
Mn76       Cl100   2.471       .  S
N79          N80   1.323       .  A
N79          N85   1.315       .  A
N79         Mn87   2.207   1_565  S
N80          C88   1.358       .  A
N81          N83   1.316       .  A
N81          N82   1.313       .  A
N81         Mn99   2.177       .  S
N82          C89   1.346       .  A
N83          N84   1.320       .  A
N83         Mn87   2.199       .  S
N84          C89   1.354       .  A
N85          N86   1.312       .  A
N85         Mn99   2.169   1_565  S
N86          C88   1.345       .  A
Mn87       Cl100   2.593       .  S
C88         C117   1.490       .  S
C89         C105   1.487       .  S
N90          N91   1.322       .  A
N90          N96   1.315       .  A
N90         Mn98   2.209   1_545  S
N91         C101   1.356       .  A
N92          N93   1.311       .  A
N92          N94   1.315       .  A
N92         Mn99   2.179   1_565  S
N93         C102   1.346       .  A
N94          N95   1.328       .  A
N94         Mn98   2.224       .  S
N95         C102   1.362       .  A
N96          N97   1.320       .  A
N96         Mn99   2.196       .  S
N97         C101   1.353       .  A
Mn98       Cl100   2.598   1_565  S
Mn99       Cl100   2.481       .  S
C101        C164   1.508       .  S
C102        C111   1.506       .  S
C103        C484   1.585       .  S
C103        C494   1.612       .  S
C103        C504   1.629       .  S
C104        C212   1.505       .  S
C104        C464   1.624       .  S
C104        C474   1.589       .  S
C104        C507   1.621       .  S
C105        C454   1.629       .  S
C105        C467   1.611       .  S
C105        C487   1.585       .  S
C106        C163   1.506       .  S
C106        C457   1.619       .  S
C106        C477   1.589       .  S
C106        C497   1.625       .  S
C107        C424   1.627       .  S
C107        C434   1.615       .  S
C107        C444   1.587       .  S
C108        C404   1.615       .  S
C108        C414   1.626       .  S
C108        C447   1.588       .  S
C109        C199   1.506       .  S
C109        C397   1.590       .  S
C109        C407   1.626       .  S
C109        C427   1.618       .  S
C110        C150   1.506       .  S
C110        C394   1.590       .  S
C110        C417   1.619       .  S
C110        C437   1.625       .  S
C111        C364   1.540       .  S
C111        C374   1.578       .  S
C111        C384   1.587       .  S
C112        C177   1.514       .  S
C112        C344   1.612       .  S
C112        C354   1.605       .  S
C112        C387   1.623       .  S
C113        C334   1.587       .  S
C113        C347   1.578       .  S
C113        C367   1.540       .  S
C114        C128   1.515       .  S
C114        C337   1.623       .  S
C114        C357   1.606       .  S
C114        C377   1.613       .  S
C115        C304   1.586       .  S
C115        C314   1.627       .  S
C115        C324   1.616       .  S
C116        C198   1.511       .  S
C116        C284   1.627       .  S
C116        C297   1.593       .  S
C116        C317   1.619       .  S
C117        C274   1.626       .  S
C117        C287   1.617       .  S
C117        C307   1.585       .  S
C118        C149   1.510       .  S
C118        C277   1.618       .  S
C118        C294   1.593       .  S
C118        C327   1.626       .  S
N119        N120   1.321       .  A
N119        N125   1.316       .  A
N119       Mn148   2.215   1_455  S
N120        C127   1.356       .  A
N121        N123   1.316       .  A
N121        N122   1.321       .  A
N121       Mn137   2.201   1_565  S
N122        C128   1.355       .  A
N123        N124   1.319       .  A
N123       Mn148   2.211       .  S
N124        C128   1.354       .  A
N125        N126   1.322       .  A
N125       Mn137   2.207   1_465  S
N126        C127   1.355       .  A
N129        N135   1.316       .  A
N129        N130   1.325       .  A
N129       Mn159   2.223       .  S
N130        C138   1.359       .  A
N131        N132   1.318       .  A
N131        N133   1.315       .  A
N131       Mn137   2.189   1_455  S
N132        C139   1.351       .  A
N133        N134   1.322       .  A
N133       Mn159   2.215   1_455  S
N134        C139   1.356       .  A
N135        N136   1.321       .  A
N135       Mn137   2.215       .  S
N136        C138   1.356       .  A
Mn137      Cl161   2.547       .  S
C138        C165   1.531       .  S
N140        N141   1.323       .  A
N140        N146   1.316       .  A
N140       Mn148   2.213   1_556  S
N141        C149   1.356       .  A
N142        N144   1.316       .  A
N142        N143   1.318       .  A
N142       Mn160   2.194   1_465  S
N143        C150   1.351       .  A
N144        N145   1.322       .  A
N144       Mn148   2.212   1_456  S
N145        C150   1.356       .  A
N146        N147   1.320       .  A
N146       Mn160   2.204   1_565  S
N147        C149   1.353       .  A
Mn148      Cl161   2.561   1_565  S
N151        N152   1.320       .  A
N151        N157   1.316       .  A
N151       Mn159   2.214   1_456  S
N152        C162   1.356       .  A
N153        N154   1.320       .  A
N153        N155   1.316       .  A
N153       Mn160   2.195       .  S
N154        C163   1.352       .  A
N155        N156   1.320       .  A
N155       Mn159   2.212   1_556  S
N156        C163   1.355       .  A
N157        N158   1.323       .  A
N157       Mn160   2.208   1_455  S
N158        C162   1.355       .  A
Mn159      Cl161   2.560       .  S
Mn160      Cl161   2.541   1_556  S
C164        C244   1.603       .  S
C164        C254   1.627       .  S
C164        C264   1.608       .  S
C165        C224   1.594       .  S
C165        C234   1.548       .  S
C165        C267   1.581       .  S
C166        C217   1.607       .  S
C166        C227   1.628       .  S
C166        C247   1.603       .  S
C167        C187   1.530       .  S
C167        C214   1.581       .  S
C167        C237   1.548       .  S
C167        C257   1.594       .  S
N168        N169   1.320       .  A
N168        N174   1.316       .  A
N168       Mn197   2.212   1_455  S
N169        C176   1.355       .  A
N170        N172   1.316       .  A
N170        N171   1.321       .  A
N170       Mn186   2.203       .  S
N171        C177   1.355       .  A
N172        N173   1.319       .  A
N172       Mn197   2.208       .  S
N173        C177   1.354       .  A
N174        N175   1.322       .  A
N174       Mn186   2.207   1_455  S
N175        C176   1.355       .  A
N178        N184   1.316       .  A
N178        N179   1.324       .  A
N178       Mn208   2.220       .  S
N179        C187   1.358       .  A
N180        N181   1.319       .  A
N180        N182   1.316       .  A
N180       Mn186   2.191   1_455  S
N181        C188   1.351       .  A
N182        N183   1.322       .  A
N182       Mn208   2.216   1_455  S
N183        C188   1.356       .  A
N184        N185   1.321       .  A
N184       Mn186   2.215       .  S
N185        C187   1.356       .  A
Mn186      Cl210   2.545       .  S
N189        N190   1.323       .  A
N189        N195   1.316       .  A
N189       Mn197   2.214       .  S
N190        C198   1.356       .  A
N191        N193   1.315       .  A
N191        N192   1.318       .  A
N191       Mn209   2.193   1_455  S
N192        C199   1.351       .  A
N193        N194   1.322       .  A
N193       Mn197   2.210   1_455  S
N194        C199   1.356       .  A
N195        N196   1.320       .  A
N195       Mn209   2.205       .  S
N196        C198   1.353       .  A
Mn197      Cl210   2.561       .  S
N200        N201   1.320       .  A
N200        N206   1.316       .  A
N200       Mn208   2.212   1_455  S
N201        C211   1.356       .  A
N202        N203   1.320       .  A
N202        N204   1.316       .  A
N202       Mn209   2.192       .  S
N203        C212   1.351       .  A
N204        N205   1.320       .  A
N204       Mn208   2.213       .  S
N205        C212   1.355       .  A
N206        N207   1.322       .  A
N206       Mn209   2.206   1_455  S
N207        C211   1.355       .  A
Mn208      Cl210   2.560       .  S
Mn209      Cl210   2.541       .  S
C213        C214   1.406       .  A
C213        C218   1.412       .  A
C213        H219   1.076       .  S
C214        C215   1.429       .  A
C215        C216   1.413       .  A
C215        H220   1.082       .  S
C216        C217   1.404       .  A
C216        H221   1.079       .  S
C217        C218   1.416       .  A
C218        H222   1.077       .  S
C223        C224   1.410       .  A
C223        C228   1.421       .  A
C223        H229   1.076       .  S
C224        C225   1.417       .  A
C225        C226   1.412       .  A
C225        H230   1.084       .  S
C226        C227   1.430       .  A
C226        H231   1.059       .  S
C227        C228   1.423       .  A
C228        H232   1.077       .  S
C233        C234   1.397       .  A
C233        C238   1.346       .  A
C233        H239   1.077       .  S
C234        C235   1.417       .  A
C235        C236   1.423       .  A
C235        H240   1.082       .  S
C236        C237   1.418       .  A
C236        H241   1.082       .  S
C237        C238   1.397       .  A
C238        H242   1.077       .  S
C243        C244   1.416       .  A
C243        C248   1.401       .  A
C243        H249   1.072       .  S
C244        C245   1.409       .  A
C245        C246   1.402       .  A
C245        H250   1.074       .  S
C246        C247   1.416       .  A
C246        H251   1.072       .  S
C247        C248   1.408       .  A
C248        H252   1.074       .  S
C253        C254   1.423       .  A
C253        C258   1.420       .  A
C253        H259   1.077       .  S
C254        C255   1.430       .  A
C255        C256   1.412       .  A
C255        H260   1.059       .  S
C256        C257   1.417       .  A
C256        H261   1.084       .  S
C257        C258   1.410       .  A
C258        H262   1.076       .  S
C263        C264   1.416       .  A
C263        C268   1.413       .  A
C263        H269   1.077       .  S
C264        C265   1.404       .  A
C265        C266   1.414       .  A
C265        H270   1.079       .  S
C266        C267   1.429       .  A
C266        H271   1.082       .  S
C267        C268   1.407       .  A
C268        H272   1.076       .  S
C273        C274   1.428       .  A
C273        C278   1.431       .  A
C273        H279   1.082       .  S
C274        C275   1.422       .  A
C275        C276   1.413       .  A
C275        H280   1.067       .  S
C276        C277   1.413       .  A
C276        H281   1.082       .  S
C277        C278   1.420       .  A
C278        H282   1.078       .  S
C283        C284   1.423       .  A
C283        C288   1.415       .  A
C283        H289   1.067       .  S
C284        C285   1.429       .  A
C285        C286   1.431       .  A
C285        H290   1.082       .  S
C286        C287   1.420       .  A
C286        H291   1.079       .  S
C287        C288   1.413       .  A
C288        H292   1.082       .  S
C293        C294   1.455       .  A
C293        C298   1.485       .  A
C293        H299   1.081       .  S
C294        C295   1.343       .  A
C295        C296   1.354       .  A
C295        H300   1.040       .  S
C296        C297   1.342       .  A
C296        H301   1.039       .  S
C297        C298   1.455       .  A
C298        H302   1.081       .  S
C303        C304   1.454       .  A
C303        C308   1.483       .  A
C303        H309   1.080       .  S
C304        C305   1.341       .  A
C305        C306   1.349       .  A
C305        H310   1.040       .  S
C306        C307   1.340       .  A
C306        H311   1.040       .  S
C307        C308   1.454       .  A
C308        H312   1.080       .  S
C313        C314   1.422       .  A
C313        C318   1.413       .  A
C313        H319   1.067       .  S
C314        C315   1.428       .  A
C315        C316   1.431       .  A
C315        H320   1.082       .  S
C316        C317   1.421       .  A
C316        H321   1.078       .  S
C317        C318   1.414       .  A
C318        H322   1.082       .  S
C323        C324   1.420       .  A
C323        C328   1.430       .  A
C323        H329   1.079       .  S
C324        C325   1.413       .  A
C325        C326   1.414       .  A
C325        H330   1.082       .  S
C326        C327   1.423       .  A
C326        H331   1.067       .  S
C327        C328   1.429       .  A
C328        H332   1.082       .  S
C333        C334   1.417       .  A
C333        C338   1.409       .  A
C333        H339   1.084       .  S
C334        C335   1.405       .  A
C335        C336   1.415       .  A
C335        H340   1.076       .  S
C336        C337   1.425       .  A
C336        H341   1.076       .  S
C337        C338   1.425       .  A
C338        H342   1.061       .  S
C343        C344   1.415       .  A
C343        C348   1.413       .  A
C343        H349   1.078       .  S
C344        C345   1.408       .  A
C345        C346   1.413       .  A
C345        H350   1.077       .  S
C346        C347   1.424       .  A
C346        H351   1.082       .  S
C347        C348   1.409       .  A
C348        H352   1.075       .  S
C353        C354   1.411       .  A
C353        C358   1.402       .  A
C353        H359   1.074       .  S
C354        C355   1.417       .  A
C355        C356   1.403       .  A
C355        H360   1.071       .  S
C356        C357   1.411       .  A
C356        H361   1.074       .  S
C357        C358   1.417       .  A
C358        H362   1.071       .  S
C363        C364   1.395       .  A
C363        C368   1.335       .  A
C363        H369   1.077       .  S
C364        C365   1.417       .  A
C365        C366   1.424       .  A
C365        H370   1.081       .  S
C366        C367   1.417       .  A
C366        H371   1.081       .  S
C367        C368   1.394       .  A
C368        H372   1.077       .  S
C373        C374   1.409       .  A
C373        C378   1.414       .  A
C373        H379   1.075       .  S
C374        C375   1.424       .  A
C375        C376   1.413       .  A
C375        H380   1.082       .  S
C376        C377   1.408       .  A
C376        H381   1.077       .  S
C377        C378   1.415       .  A
C378        H382   1.078       .  S
C383        C384   1.417       .  A
C383        C388   1.409       .  A
C383        H389   1.084       .  S
C384        C385   1.405       .  A
C385        C386   1.415       .  A
C385        H390   1.076       .  S
C386        C387   1.425       .  A
C386        H391   1.076       .  S
C387        C388   1.425       .  A
C388        H392   1.060       .  S
C393        C394   1.342       .  A
C393        C398   1.354       .  A
C393        H399   1.040       .  S
C394        C395   1.454       .  A
C395        C396   1.483       .  A
C395        H400   1.081       .  S
C396        C397   1.454       .  A
C396        H401   1.081       .  S
C397        C398   1.341       .  A
C398        H402   1.040       .  S
C403        C404   1.420       .  A
C403        C408   1.430       .  A
C403        H409   1.079       .  S
C404        C405   1.413       .  A
C405        C406   1.414       .  A
C405        H410   1.082       .  S
C406        C407   1.423       .  A
C406        H411   1.067       .  S
C407        C408   1.429       .  A
C408        H412   1.082       .  S
C413        C414   1.423       .  A
C413        C418   1.413       .  A
C413        H419   1.067       .  S
C414        C415   1.428       .  A
C415        C416   1.431       .  A
C415        H420   1.082       .  S
C416        C417   1.420       .  A
C416        H421   1.078       .  S
C417        C418   1.414       .  A
C418        H422   1.082       .  S
C423        C424   1.428       .  A
C423        C428   1.431       .  A
C423        H429   1.082       .  S
C424        C425   1.423       .  A
C425        C426   1.413       .  A
C425        H430   1.067       .  S
C426        C427   1.414       .  A
C426        H431   1.082       .  S
C427        C428   1.420       .  A
C428        H432   1.079       .  S
C433        C434   1.413       .  A
C433        C438   1.414       .  A
C433        H439   1.081       .  S
C434        C435   1.419       .  A
C435        C436   1.430       .  A
C435        H440   1.079       .  S
C436        C437   1.429       .  A
C436        H441   1.082       .  S
C437        C438   1.422       .  A
C438        H442   1.067       .  S
C443        C444   1.455       .  A
C443        C448   1.484       .  A
C443        H449   1.080       .  S
C444        C445   1.340       .  A
C445        C446   1.350       .  A
C445        H450   1.040       .  S
C446        C447   1.340       .  A
C446        H451   1.040       .  S
C447        C448   1.454       .  A
C448        H452   1.079       .  S
C453        C454   1.429       .  A
C453        C458   1.432       .  A
C453        H459   1.082       .  S
C454        C455   1.424       .  A
C455        C456   1.414       .  A
C455        H460   1.066       .  S
C456        C457   1.414       .  A
C456        H461   1.081       .  S
C457        C458   1.420       .  A
C458        H462   1.079       .  S
C463        C464   1.429       .  A
C463        C468   1.428       .  A
C463        H469   1.082       .  S
C464        C465   1.423       .  A
C465        C466   1.413       .  A
C465        H470   1.067       .  S
C466        C467   1.413       .  A
C466        H471   1.081       .  S
C467        C468   1.417       .  A
C468        H472   1.079       .  S
C473        C474   1.341       .  A
C473        C478   1.354       .  A
C473        H479   1.040       .  S
C474        C475   1.454       .  A
C475        C476   1.482       .  A
C475        H480   1.082       .  S
C476        C477   1.455       .  A
C476        H481   1.082       .  S
C477        C478   1.342       .  A
C478        H482   1.040       .  S
C483        C484   1.339       .  A
C483        C488   1.349       .  A
C483        H489   1.041       .  S
C484        C485   1.455       .  A
C485        C486   1.482       .  A
C485        H490   1.081       .  S
C486        C487   1.456       .  A
C486        H491   1.081       .  S
C487        C488   1.339       .  A
C488        H492   1.041       .  S
C493        C494   1.413       .  A
C493        C498   1.414       .  A
C493        H499   1.081       .  S
C494        C495   1.418       .  A
C495        C496   1.429       .  A
C495        H500   1.079       .  S
C496        C497   1.429       .  A
C496        H501   1.082       .  S
C497        C498   1.423       .  A
C498        H502   1.067       .  S
C503        C504   1.429       .  A
C503        C508   1.432       .  A
C503        H509   1.082       .  S
C504        C505   1.424       .  A
C505        C506   1.415       .  A
C505        H510   1.066       .  S
C506        C507   1.414       .  A
C506        H511   1.081       .  S
C507        C508   1.420       .  A
C508        H512   1.079       .  S
C513        C514   1.423       .  A
C513        C518   1.415       .  A
C513        H519   1.076       .  S
C514        C515   1.422       .  A
C515        C516   1.409       .  A
C515        H520   1.061       .  S
C516        C517   1.417       .  A
C516        H521   1.083       .  S
C517        C518   1.406       .  A
C518        H522   1.076       .  S
C523        C524   1.412       .  A
C523        C528   1.403       .  A
C523        H529   1.074       .  S
C524        C525   1.415       .  A
C525        C526   1.403       .  A
C525        H530   1.072       .  S
C526        C527   1.412       .  A
C526        H531   1.073       .  S
C527        C528   1.416       .  A
C528        H532   1.072       .  S
C533        C534   1.417       .  A
C533        C538   1.415       .  A
C533        H539   1.078       .  S
C534        C535   1.411       .  A
C535        C536   1.413       .  A
C535        H540   1.074       .  S
C536        C537   1.423       .  A
C536        H541   1.083       .  S
C537        C538   1.409       .  A
C538        H542   1.075       .  S
C543        C544   1.417       .  A
C543        C548   1.424       .  A
C543        H549   1.081       .  S
C544        C545   1.394       .  A
C545        C546   1.331       .  A
C545        H550   1.078       .  S
C546        C547   1.394       .  A
C546        H551   1.078       .  S
C547        C548   1.417       .  A
C548        H552   1.081       .  S
C553        C554   1.408       .  A
C553        C558   1.415       .  A
C553        H559   1.075       .  S
C554        C555   1.423       .  A
C555        C556   1.412       .  A
C555        H560   1.083       .  S
C556        C557   1.410       .  A
C556        H561   1.074       .  S
C557        C558   1.417       .  A
C558        H562   1.078       .  S
C563        C564   1.407       .  A
C563        C568   1.415       .  A
C563        H569   1.075       .  S
C564        C565   1.418       .  A
C565        C566   1.409       .  A
C565        H570   1.083       .  S
C566        C567   1.421       .  A
C566        H571   1.061       .  S
C567        C568   1.423       .  A
C568        H572   1.077       .  S
C573        C574   1.415       .  A
C573        C578   1.412       .  A
C573        H579   1.070       .  S
C574        C575   1.418       .  A
C575        C576   1.417       .  A
C575        H580   1.078       .  S
C576        C577   1.409       .  A
C576        H581   1.076       .  S
C577        C578   1.421       .  A
C578        H582   1.083       .  S
C583        C584   1.421       .  A
C583        C588   1.414       .  A
C583        H589   1.077       .  S
C584        C585   1.417       .  A
C585        C586   1.409       .  A
C585        H590   1.065       .  S
C586        C587   1.419       .  A
C586        H591   1.083       .  S
C587        C588   1.407       .  A
C588        H592   1.075       .  S
C593        C594   1.414       .  A
C593        C598   1.403       .  A
C593        H599   1.073       .  S
C594        C595   1.415       .  A
C595        C596   1.404       .  A
C595        H600   1.072       .  S
C596        C597   1.414       .  A
C596        H601   1.073       .  S
C597        C598   1.415       .  A
C598        H602   1.072       .  S
C603        C604   1.394       .  A
C603        C608   1.332       .  A
C603        H609   1.077       .  S
C604        C605   1.418       .  A
C605        C606   1.429       .  A
C605        H610   1.081       .  S
C606        C607   1.418       .  A
C606        H611   1.081       .  S
C607        C608   1.395       .  A
C608        H612   1.077       .  S
C613        C614   1.421       .  A
C613        C618   1.414       .  A
C613        H619   1.077       .  S
C614        C615   1.417       .  A
C615        C616   1.409       .  A
C615        H620   1.065       .  S
C616        C617   1.419       .  A
C616        H621   1.083       .  S
C617        C618   1.407       .  A
C618        H622   1.075       .  S
C623        C624   1.418       .  A
C623        C628   1.418       .  A
C623        H629   1.078       .  S
C624        C625   1.414       .  A
C625        C626   1.412       .  A
C625        H630   1.070       .  S
C626        C627   1.421       .  A
C626        H631   1.083       .  S
C627        C628   1.410       .  A
C628        H632   1.075       .  S
C633        C634   1.453       .  A
C633        C638   1.480       .  A
C633        H639   1.082       .  S
C634        C635   1.340       .  A
C635        C636   1.353       .  A
C635        H640   1.040       .  S
C636        C637   1.342       .  A
C636        H641   1.040       .  S
C637        C638   1.453       .  A
C638        H642   1.082       .  S
C643        C644   1.420       .  A
C643        C648   1.430       .  A
C643        H649   1.079       .  S
C644        C645   1.413       .  A
C645        C646   1.415       .  A
C645        H650   1.082       .  S
C646        C647   1.424       .  A
C646        H651   1.067       .  S
C647        C648   1.429       .  A
C648        H652   1.082       .  S
C653        C654   1.428       .  A
C653        C658   1.430       .  A
C653        H659   1.082       .  S
C654        C655   1.423       .  A
C655        C656   1.413       .  A
C655        H660   1.066       .  S
C656        C657   1.413       .  A
C656        H661   1.082       .  S
C657        C658   1.420       .  A
C658        H662   1.079       .  S
C663        C664   1.456       .  A
C663        C668   1.484       .  A
C663        H669   1.082       .  S
C664        C665   1.340       .  A
C665        C666   1.349       .  A
C665        H670   1.040       .  S
C666        C667   1.339       .  A
C666        H671   1.040       .  S
C667        C668   1.456       .  A
C668        H672   1.082       .  S
C673        C674   1.428       .  A
C673        C678   1.430       .  A
C673        H679   1.082       .  S
C674        C675   1.423       .  A
C675        C676   1.413       .  A
C675        H680   1.066       .  S
C676        C677   1.414       .  A
C676        H681   1.081       .  S
C677        C678   1.419       .  A
C678        H682   1.079       .  S
C683        C684   1.413       .  A
C683        C688   1.415       .  A
C683        H689   1.081       .  S
C684        C685   1.419       .  A
C685        C686   1.430       .  A
C685        H690   1.079       .  S
C686        C687   1.428       .  A
C686        H691   1.082       .  S
C687        C688   1.424       .  A
C688        H692   1.067       .  S
