geometry optimzed in LAMMPS
_audit_creation_date              2020-11-30 
_audit_creation_method            'lammps2cif' 
_symmetry_space_group_name_H-M    'P1' 
_symmetry_Int_Tables_number       1 
_symmetry_cell_setting            triclinic 
loop_ 
_symmetry_equiv_pos_as_xyz 
  x,y,z 
_cell_length_a                    43.89419783 
_cell_length_b                    43.5630217465163 
_cell_length_c                    43.51332681690055 
_cell_angle_alpha                 90.09040509507106 
_cell_angle_beta                  90.11984246220247 
_cell_angle_gamma                 89.84198579178546 
loop_ 
_atom_site_label 
_atom_site_type_symbol 
_atom_site_fract_x 
_atom_site_fract_y 
_atom_site_fract_z 
_atom_site_charge 
O1          O  0.99917333  0.04847215  0.08743061    -0.86700
O2          O  0.00016091  0.04723974  0.41099112    -0.86900
O3          O  0.04933155  0.08655433  0.99955242    -0.88500
O4          O  0.45072046  0.08785540  0.99775448    -0.87300
O5          O  0.41408132  0.05047415  0.99665035    -0.86900
O6          O  0.08597782  0.04900715  0.00154063    -0.88200
O7          O  0.99900475  0.08482234  0.44799831    -0.86700
O8          O  0.00004807  0.08560873  0.05013674    -0.86300
Zr9        Zr  0.99986176  0.06134283  0.99935086     2.84300
O10         O  0.46918935  0.02953790  0.46779545    -1.08300
O11         O  0.02978942  0.03056321  0.03163206    -1.09000
C12         C  0.99982806  0.07662229  0.07850056     1.06400
C13         C  0.99953613  0.07558334  0.41972097     1.06400
C14         C  0.07732400  0.07731192  0.00029142     1.09300
C15         C  0.42273978  0.07888928  0.99660913     1.07100
H16         H  0.04328348  0.04278993  0.45600107     0.32700
O17         O  0.03074505  0.03038587  0.46864531    -1.29200
H18         H  0.45478066  0.04366253  0.04301517     0.32400
O19         O  0.46788258  0.03069622  0.03030753    -1.30900
O20         O  0.99986100  0.44999978  0.41285209    -0.86700
O21         O  0.99841097  0.44980729  0.08769081    -0.88200
O22         O  0.08829677  0.99718897  0.45220149    -0.86800
O23         O  0.41427818  0.99857529  0.44833017    -0.86800
O24         O  0.41063376  0.99882604  0.04678807    -0.86500
O25         O  0.08377725  0.99821090  0.05250859    -0.86300
O26         O  0.05081332  0.41329116  0.00193138    -0.86700
O27         O  0.45142967  0.41064825  0.00261276    -0.86200
O28         O  0.08769736  0.45034922  0.00359457    -0.87200
O29         O  0.41489201  0.44825317  0.00226750    -0.86400
O30         O  0.05182391  0.99721628  0.41438046    -0.86800
O31         O  0.04647247  0.99669207  0.08932236    -0.86500
O32         O  0.44693957  0.99745940  0.08465873    -0.86200
O33         O  0.45181640  0.99794375  0.41165525    -0.86600
O34         O  0.99916212  0.41286433  0.45010763    -0.86900
O35         O  0.00010179  0.41260750  0.05033143    -0.88200
Zr36       Zr  0.00096338  0.99824103  0.43782594     2.83900
Zr37       Zr  0.99804199  0.99941018  0.06157899     2.83500
Zr38       Zr  0.06103250  0.99933250  0.00130104     2.84100
Zr39       Zr  0.43800541  0.99959799  0.99843684     2.83400
Zr40       Zr  0.00062487  0.43737857  0.00066865     2.84200
O41         O  0.46870930  0.46816277  0.03112266    -1.08800
O42         O  0.03085384  0.46788108  0.46983072    -1.08300
C43         C  0.99923029  0.42184732  0.42180464     1.06400
C44         C  0.99940973  0.42163947  0.07853868     1.09000
C45         C  0.07988370  0.99672502  0.42374168     1.06600
C46         C  0.42361838  0.99818233  0.42021721     1.06900
C47         C  0.41891685  0.99753139  0.07520108     1.06500
C48         C  0.07464179  0.99683571  0.08071814     1.06100
C49         C  0.07889878  0.42215326  0.00306254     1.06500
C50         C  0.42339543  0.41974359  0.00335306     1.06000
H51         H  0.04285405  0.45570230  0.04574158     0.32700
O52         O  0.03046654  0.46831310  0.03272530    -1.29900
H53         H  0.45603491  0.45614390  0.45585606     0.32700
O54         O  0.46873297  0.46878253  0.46869919    -1.31200
O55         O  0.99714000  0.20010451  0.16202833    -0.86700
O56         O  0.00135943  0.20048549  0.33736323    -0.86900
O57         O  0.04662821  0.16084546  0.24934123    -0.88500
O58         O  0.44771594  0.16466021  0.25143193    -0.87300
O59         O  0.41100838  0.20203588  0.25099855    -0.86900
O60         O  0.08355735  0.19783144  0.24908458    -0.88200
O61         O  0.99913791  0.16349788  0.29981713    -0.86700
O62         O  0.99729873  0.16317415  0.19954547    -0.86300
Zr63       Zr  0.99814142  0.18827103  0.24963825     2.84300
O64         O  0.46836312  0.21947583  0.28120359    -1.08300
O65         O  0.02935138  0.21822150  0.21810004    -1.09000
C66         C  0.99686998  0.17193272  0.17116863     1.06400
C67         C  0.00072664  0.17222627  0.32818683     1.06400
C68         C  0.07475907  0.16945307  0.24932448     1.09300
C69         C  0.41959108  0.17368490  0.25163106     1.07100
H70         H  0.04257423  0.20597078  0.29283908     0.32700
O71         O  0.02980665  0.21887465  0.28018563    -1.29200
H72         H  0.45436153  0.20673211  0.20598645     0.32400
O73         O  0.46753592  0.21932542  0.21866768    -1.30900
O74         O  0.00130311  0.30074115  0.33608365    -0.86700
O75         O  0.99890017  0.29980443  0.16236941    -0.88200
O76         O  0.08720841  0.24946860  0.29721609    -0.86800
O77         O  0.41377994  0.25009166  0.30092378    -0.86800
O78         O  0.41239574  0.25203102  0.20040568    -0.86500
O79         O  0.08622747  0.24675076  0.19945417    -0.86300
O80         O  0.04899148  0.33749334  0.24770416    -0.86700
O81         O  0.45074715  0.33780303  0.24944694    -0.86200
O82         O  0.08552308  0.29974568  0.24835655    -0.87200
O83         O  0.41336502  0.30107077  0.24886143    -0.86400
O84         O  0.05060470  0.25071483  0.33458512    -0.86800
O85         O  0.04894568  0.24781090  0.16248582    -0.86500
O86         O  0.44889448  0.25244607  0.16268285    -0.86200
O87         O  0.45104205  0.25007163  0.33800456    -0.86600
O88         O  0.00176236  0.33770898  0.29864954    -0.86900
O89         O  0.99801589  0.33689418  0.19982016    -0.88200
Zr90       Zr  0.99983542  0.25035882  0.31158267     2.83100
Zr91       Zr  0.99891454  0.24983528  0.18740984     2.83500
Zr92       Zr  0.06056493  0.24920269  0.24864754     2.84100
Zr93       Zr  0.43779061  0.25088966  0.25029620     2.83400
Zr94       Zr  0.99979814  0.31179690  0.24933163     2.84200
O95         O  0.46859318  0.28114519  0.21880289    -1.08800
O96         O  0.03070006  0.28072378  0.28018439    -1.08300
C97         C  0.00195778  0.32897355  0.32693916     1.06400
C98         C  0.99807091  0.32801654  0.17157218     1.09000
C99         C  0.07866293  0.25013869  0.32548016     1.06600
C100        C  0.42286396  0.24978002  0.32923350     1.06900
C101        C  0.42096251  0.25295961  0.17201483     1.06500
C102        C  0.07715276  0.24669840  0.17126659     1.06100
C103        C  0.07697130  0.32827657  0.24780642     1.06500
C104        C  0.42260733  0.32918309  0.24886431     1.06000
H105        H  0.04301625  0.29336137  0.20472844     0.32700
O106        O  0.03028930  0.28081197  0.21773545    -1.29900
H107        H  0.45661879  0.29473156  0.29409655     0.32700
O108        O  0.46901946  0.28170449  0.28116119    -1.31200
O109        O  0.33695224  0.49813530  0.20023788    -0.86700
O110        O  0.16387790  0.50021384  0.20087343    -0.86900
O111        O  0.25199258  0.44987176  0.16194083    -0.88500
O112        O  0.25081984  0.04954222  0.16282057    -0.87300
O113        O  0.25122275  0.08681999  0.19996023    -0.86900
O114        O  0.25072321  0.41270123  0.19926049    -0.88200
O115        O  0.20024229  0.50051407  0.16311528    -0.86700
O116        O  0.29997873  0.49844109  0.16299889    -0.86300
Zr117      Zr  0.25031966  0.49931226  0.18801168     2.84300
O118        O  0.21869404  0.03065202  0.21854393    -1.08300
O119        O  0.28100362  0.46805318  0.21884214    -1.09000
C120        C  0.32808604  0.49800060  0.17196130     1.06400
C121        C  0.17226710  0.50066733  0.17245865     1.06400
C122        C  0.25174227  0.42164995  0.17095998     1.09300
C123        C  0.25142360  0.07783115  0.17174535     1.07100
H124        H  0.20657550  0.45543191  0.20596793     0.32700
O125        O  0.21938093  0.46812346  0.21874152    -1.29200
H126        H  0.29418552  0.04283502  0.20508247     0.32400
O127        O  0.28133801  0.03031651  0.21793506    -1.30900
O128        O  0.16394838  0.49871989  0.30011193    -0.86700
O129        O  0.33759450  0.49886448  0.29951584    -0.88200
O130        O  0.20090027  0.41132372  0.25175836    -0.86800
O131        O  0.20075930  0.08685288  0.24939759    -0.86800
O132        O  0.30068180  0.08495966  0.25068294    -0.86500
O133        O  0.30006820  0.41199153  0.24727583    -0.86300
O134        O  0.25171016  0.44950801  0.33738832    -0.86700
O135        O  0.25346597  0.05008739  0.33481408    -0.86200
O136        O  0.25177699  0.41256202  0.29987189    -0.87200
O137        O  0.25247090  0.08737552  0.29781288    -0.86400
O138        O  0.16431961  0.44905466  0.25102071    -0.86800
O139        O  0.33684953  0.44932772  0.24841893    -0.86500
O140        O  0.33776342  0.04798153  0.25011998    -0.86200
O141        O  0.16408300  0.04960701  0.24964236    -0.86600
O142        O  0.20088506  0.49830875  0.33737991    -0.86900
O143        O  0.30100773  0.50052277  0.33705515    -0.88200
Zr144      Zr  0.18931885  0.49936271  0.25043170     2.83100
Zr145      Zr  0.31190779  0.49872056  0.24994615     2.83500
Zr146      Zr  0.25038182  0.43712389  0.24972304     2.84100
Zr147      Zr  0.25043087  0.06104699  0.24914119     2.83400
Zr148      Zr  0.25095593  0.49901314  0.31207599     2.84200
O149        O  0.28138809  0.03027362  0.28016394    -1.08800
O150        O  0.21999949  0.46810734  0.28117173    -1.08300
C151        C  0.17266475  0.49824742  0.32846716     1.06400
C152        C  0.32903394  0.50026107  0.32784774     1.09000
C153        C  0.17285172  0.42056830  0.25175859     1.06600
C154        C  0.17264163  0.07799770  0.24956752     1.06900
C155        C  0.32887821  0.07619973  0.25092278     1.06500
C156        C  0.32804325  0.42118680  0.24717529     1.06100
C157        C  0.25200725  0.42133654  0.32826553     1.06500
C158        C  0.25371822  0.07833554  0.32591100     1.06000
H159        H  0.29450947  0.45478975  0.29369067     0.32700
O160        O  0.28158835  0.46759671  0.28105908    -1.29900
H161        H  0.20721593  0.04373055  0.29365553     0.32700
O162        O  0.21967753  0.03072264  0.28077277    -1.31200
O163        O  0.19730824  0.16258666  0.49949951    -0.86700
O164        O  0.19850812  0.33613094  0.50013495    -0.86900
O165        O  0.16119827  0.25013804  0.04829566    -0.88500
O166        O  0.16141142  0.24923845  0.45010094    -0.87300
O167        O  0.19830468  0.24787767  0.41304938    -0.86900
O168        O  0.19799891  0.24914333  0.08573841    -0.88200
O169        O  0.16182750  0.29884498  0.49925949    -0.86700
O170        O  0.16088909  0.20037279  0.50065018    -0.86300
Zr171      Zr  0.18728923  0.24921127  0.49922568     2.84300
O172        O  0.21766213  0.27980107  0.46770818    -1.08300
O173        O  0.21781365  0.21762496  0.03070904    -1.09000
C174        C  0.16925972  0.17199056  0.50036081     1.06400
C175        C  0.17042778  0.32712913  0.50003056     1.06400
C176        C  0.16989494  0.24990520  0.07660216     1.09300
C177        C  0.17016477  0.24831649  0.42189628     1.07100
H178        H  0.20486259  0.29279832  0.04315562     0.32700
O179        O  0.21772068  0.27997746  0.03048403    -1.29200
H180        H  0.20431380  0.20470325  0.45520953     0.32400
O181        O  0.21714890  0.21749915  0.46786074    -1.30900
O182        O  0.29679221  0.33728521  0.50032397    -0.86700
O183        O  0.29724678  0.16084297  0.49700425    -0.88200
O184        O  0.24740581  0.29828875  0.08750944    -0.86800
O185        O  0.24850680  0.29697618  0.41100758    -0.86800
O186        O  0.24870853  0.19782254  0.41298002    -0.86500
O187        O  0.24785307  0.19869209  0.08601566    -0.86300
O188        O  0.33547692  0.25134593  0.05017178    -0.86700
O189        O  0.33486603  0.24753595  0.44886241    -0.86200
O190        O  0.29824685  0.25001975  0.08714271    -0.87200
O191        O  0.29814744  0.24524463  0.41130087    -0.86400
O192        O  0.24827294  0.33537924  0.05007525    -0.86800
O193        O  0.24865005  0.16157107  0.04867559    -0.86500
O194        O  0.24837634  0.16066409  0.45008847    -0.86200
O195        O  0.24752592  0.33420647  0.44825803    -0.86600
O196        O  0.33390109  0.30023998  0.50061730    -0.86900
O197        O  0.33415387  0.19804244  0.49774043    -0.88200
Zr198      Zr  0.24826240  0.31062948  0.49905997     2.83100
Zr199      Zr  0.24790770  0.18685484  0.49910095     2.83500
Zr200      Zr  0.24841027  0.24889600  0.06158926     2.84100
Zr201      Zr  0.24855700  0.24805840  0.43724437     2.83400
Zr202      Zr  0.31021697  0.24892587  0.49905847     2.84200
O203        O  0.27920001  0.21756752  0.46853566    -1.08800
O204        O  0.27911953  0.28003408  0.03081028    -1.08300
C205        C  0.32492834  0.32868982  0.50111475     1.06400
C206        C  0.32534182  0.16967862  0.49686534     1.09000
C207        C  0.24771223  0.32646937  0.07842098     1.06600
C208        C  0.24796447  0.32519881  0.41990960     1.06900
C209        C  0.24876889  0.16955819  0.42189333     1.06500
C210        C  0.24801593  0.17043349  0.07692204     1.06100
C211        C  0.32643456  0.25106750  0.07847403     1.06500
C212        C  0.32623304  0.24580421  0.42046817     1.06000
H213        H  0.29252403  0.20547226  0.04364838     0.32700
O214        O  0.27977636  0.21819202  0.03074536    -1.29900
H215        H  0.29203985  0.29242359  0.45498663     0.32700
O216        O  0.27937333  0.27974634  0.46784119    -1.31200
C217        C  0.24124238  0.09395565  0.11810860    -0.12500
C218        C  0.25170356  0.10165352  0.14761805     0.04500
C219        C  0.26107383  0.13211291  0.15350917    -0.07800
C220        C  0.25879894  0.15412521  0.13038009    -0.08500
C221        C  0.24827730  0.14645391  0.10089722    -0.03100
C222        C  0.23921307  0.11591795  0.09491121     0.03800
N223        N  0.22643244  0.10700991  0.06600694     0.66300
H224        H  0.23396004  0.07077983  0.11300482     0.15200
H225        H  0.26589502  0.17733228  0.13549703     0.14900
N226        N  0.27445825  0.14085583  0.18219009     0.74000
O227        O  0.24238291  0.09170148  0.04735503    -0.39500
O228        O  0.19792752  0.10814851  0.06232681    -0.39400
O229        O  0.30291338  0.13845580  0.18564182    -0.40100
O230        O  0.25940095  0.15720540  0.20071384    -0.40200
C231        C  0.26530053  0.37725523  0.09688984    -0.12500
C232        C  0.24822111  0.35062141  0.10226850     0.04500
C233        C  0.23270369  0.34745700  0.13048298    -0.07800
C234        C  0.23464394  0.37069744  0.15257684    -0.08500
C235        C  0.25158134  0.39742015  0.14715166    -0.03100
C236        C  0.26720990  0.40052642  0.11898226     0.03800
N237        N  0.28621869  0.42639777  0.11290520     0.66300
H238        H  0.27784588  0.37977706  0.07560971     0.15200
H239        H  0.22209735  0.36813363  0.17384957     0.14900
N240        N  0.21356615  0.32166044  0.13649689     0.74000
O241        O  0.27715877  0.44667544  0.09430962    -0.39500
O242        O  0.31414833  0.42499402  0.11971699    -0.39400
O243        O  0.22271796  0.30101106  0.15463294    -0.40100
O244        O  0.18557733  0.32333367  0.12999942    -0.40200
C245        C  0.24435944  0.36695478  0.34319221    -0.12500
C246        C  0.25206130  0.39697955  0.35198346     0.04500
C247        C  0.25867504  0.40293819  0.38324710    -0.07800
C248        C  0.25695832  0.37925810  0.40470346    -0.08500
C249        C  0.24874657  0.34935149  0.39599966    -0.03100
C250        C  0.24231324  0.34334850  0.36470271     0.03800
N251        N  0.23215596  0.31394953  0.35436797     0.66300
H252        H  0.23908758  0.36169689  0.31944530     0.15200
H253        H  0.26239623  0.38446007  0.42842252     0.14900
N254        N  0.26778717  0.43263733  0.39374855     0.74000
O255        O  0.20392344  0.30892830  0.35249461    -0.39500
O256        O  0.25040668  0.29665720  0.34008878    -0.39400
O257        O  0.24864744  0.44955907  0.40726707    -0.40100
O258        O  0.29579295  0.43874906  0.39595884    -0.40200
C259        C  0.24548845  0.09324195  0.37981033    -0.12500
C260        C  0.25429830  0.10189913  0.35016874     0.04500
C261        C  0.26146106  0.13292599  0.34436792    -0.07800
C262        C  0.25892228  0.15443161  0.36797242    -0.08500
C263        C  0.25007094  0.14576535  0.39770346    -0.03100
C264        C  0.24312487  0.11464011  0.40338936     0.03800
N265        N  0.23051471  0.10452938  0.43178684     0.66300
H266        H  0.23912599  0.06973030  0.38471931     0.15200
H267        H  0.26424206  0.17810577  0.36290247     0.14900
N268        N  0.27229696  0.14297658  0.31511385     0.74000
O269        O  0.20246125  0.09851775  0.43242594    -0.39500
O270        O  0.24776542  0.09175816  0.45114444    -0.39400
O271        O  0.25576708  0.16026644  0.29884594    -0.40100
O272        O  0.30034979  0.14088544  0.30921518    -0.40200
C273        C  0.40506026  0.11846766  0.25497480    -0.12500
C274        C  0.39574846  0.14930423  0.25245335     0.04500
C275        C  0.36411982  0.15560682  0.25032118    -0.07800
C276        C  0.34318483  0.13148501  0.24995933    -0.08500
C277        C  0.35253088  0.10067443  0.25195448    -0.03100
C278        C  0.38407939  0.09436273  0.25481692     0.03800
N279        N  0.39554191  0.06374491  0.25762600     0.66300
H280        H  0.42900311  0.11269791  0.25702454     0.15200
H281        H  0.31923315  0.13722565  0.24798242     0.14900
N282        N  0.35245748  0.18619652  0.24837309     0.74000
O283        O  0.40572786  0.05025090  0.23409356    -0.39500
O284        O  0.40231127  0.05353966  0.28390411    -0.39400
O285        O  0.34236382  0.19572105  0.22293707    -0.40100
O286        O  0.34424793  0.19961474  0.27271447    -0.40200
C287        C  0.37845270  0.40253419  0.26417895    -0.12500
C288        C  0.35227357  0.39784690  0.24633331     0.04500
C289        C  0.34971024  0.37103475  0.22842399    -0.07800
C290        C  0.37277536  0.34877462  0.22967864    -0.08500
C291        C  0.39889032  0.35327599  0.24794868    -0.03100
C292        C  0.40168254  0.38064415  0.26510048     0.03800
N293        N  0.42728098  0.38609069  0.28464512     0.66300
H294        H  0.38063759  0.42308007  0.27810446     0.15200
H295        H  0.37062458  0.32822967  0.21576521     0.14900
N296        N  0.32458781  0.36690267  0.20784105     0.74000
O297        O  0.44805349  0.40379847  0.27551430    -0.39500
O298        O  0.42515015  0.38022743  0.31295068    -0.39400
O299        O  0.32179417  0.38411715  0.18468860    -0.40100
O300        O  0.30315873  0.34906799  0.21500689    -0.40200
C301        C  0.12979023  0.15483671  0.24982679    -0.12500
C302        C  0.09917994  0.14537622  0.24969295     0.04500
C303        C  0.09315968  0.11341480  0.25011987    -0.07800
C304        C  0.11732562  0.09229221  0.24995551    -0.08500
C305        C  0.14796359  0.10182336  0.24976935    -0.03100
C306        C  0.15389004  0.13374328  0.24999546     0.03800
N307        N  0.18416525  0.14555011  0.25089526     0.66300
H308        H  0.13541996  0.17903586  0.24990782     0.15200
H309        H  0.11177307  0.06807614  0.25011569     0.14900
N310        N  0.06281647  0.10164465  0.25104576     0.74000
O311        O  0.19630064  0.15457840  0.22626987    -0.39500
O312        O  0.19486221  0.15460091  0.27625506    -0.39400
O313        O  0.05034780  0.09302457  0.22636030    -0.40100
O314        O  0.05223406  0.09237694  0.27632147    -0.40200
C315        C  0.12854453  0.34603611  0.26369473    -0.12500
C316        C  0.10122645  0.35218471  0.24811358     0.04500
C317        C  0.09747522  0.38132262  0.23427891    -0.07800
C318        C  0.12089344  0.40316131  0.23608084    -0.08500
C319        C  0.14836315  0.39686405  0.25156671    -0.03100
C320        C  0.15182109  0.36792271  0.26585357     0.03800
N321        N  0.17776962  0.36100291  0.28447491     0.66300
H322        H  0.13145321  0.32431263  0.27518281     0.15200
H323        H  0.11770855  0.42506201  0.22471233     0.14900
N324        N  0.07058958  0.38882847  0.21728141     0.74000
O325        O  0.17638984  0.36610197  0.31299607    -0.39500
O326        O  0.19772018  0.34270433  0.27437418    -0.39400
O327        O  0.05072557  0.40600630  0.22932945    -0.40100
O328        O  0.07014043  0.38446903  0.18860832    -0.40200
C329        C  0.37722829  0.26899468  0.09800449    -0.12500
C330        C  0.35032905  0.25209127  0.10285027     0.04500
C331        C  0.34686249  0.23634065  0.13100810    -0.07800
C332        C  0.36988661  0.23740400  0.15324302    -0.08500
C333        C  0.39668861  0.25400157  0.14834367    -0.03100
C334        C  0.40012605  0.27038402  0.12061802     0.03800
N335        N  0.42607324  0.28958526  0.11578346     0.66300
H336        H  0.38017616  0.28178596  0.07687943     0.15200
H337        H  0.36709573  0.22436990  0.17421577     0.14900
N338        N  0.32108666  0.21732280  0.13669689     0.74000
O339        O  0.44724116  0.28069847  0.09830181    -0.39500
O340        O  0.42984811  0.31315690  0.13225824    -0.39400
O341        O  0.32386577  0.18866495  0.13348580    -0.40100
O342        O  0.29932266  0.22781216  0.15247992    -0.40200
C343        C  0.09463964  0.26093240  0.11898572    -0.12500
C344        C  0.10091152  0.24648903  0.14707969     0.04500
C345        C  0.13004795  0.23327645  0.15168507    -0.07800
C346        C  0.15216251  0.23532794  0.12868397    -0.08500
C347        C  0.14589556  0.24974513  0.10056149    -0.03100
C348        C  0.11660299  0.26258142  0.09581244     0.03800
N349        N  0.10859565  0.27759310  0.06778594     0.66300
H350        H  0.07257862  0.27147000  0.11501417     0.15200
H351        H  0.17416269  0.22464667  0.13259389     0.14900
N352        N  0.13714926  0.21612263  0.17874353     0.74000
O353        O  0.09237128  0.26335971  0.04854370    -0.39500
O354        O  0.11004267  0.30648830  0.06637186    -0.39400
O355        O  0.13358684  0.18738813  0.17842892    -0.40100
O356        O  0.15404040  0.22797970  0.19901011    -0.40200
C357        C  0.15530792  0.25170058  0.36693500    -0.12500
C358        C  0.14632429  0.24795502  0.39763536     0.04500
C359        C  0.11487614  0.24455121  0.40410180    -0.07800
C360        C  0.09363910  0.24599528  0.38025982    -0.08500
C361        C  0.10261700  0.24976570  0.34958668    -0.03100
C362        C  0.13408281  0.25247722  0.34304577     0.03800
N363        N  0.14524956  0.25644495  0.31250169     0.66300
H364        H  0.17916434  0.25400412  0.36111963     0.15200
H365        H  0.06980015  0.24323874  0.38599670     0.14900
N366        N  0.10378781  0.23819920  0.43430899     0.74000
O367        O  0.15474996  0.28253555  0.30457389    -0.39500
O368        O  0.15391935  0.23315960  0.29757852    -0.39400
O369        O  0.08362597  0.25548476  0.44565232    -0.40100
O370        O  0.10687854  0.21144758  0.44495981    -0.40200
C371        C  0.37202192  0.23187486  0.34698550    -0.12500
C372        C  0.39879846  0.24836087  0.35321024     0.04500
C373        C  0.40165382  0.26313083  0.38197706    -0.07800
C374        C  0.37779230  0.26181881  0.40326686    -0.08500
C375        C  0.35084086  0.24564990  0.39694231    -0.03100
C376        C  0.34835122  0.23010155  0.36852030     0.03800
N377        N  0.32304817  0.21069535  0.36184937     0.66300
H378        H  0.36970725  0.21959148  0.32545467     0.15200
H379        H  0.38029114  0.27403345  0.42484497     0.14900
N380        N  0.42786989  0.28094419  0.38950869     0.74000
O381        O  0.30280869  0.22001467  0.34343790    -0.39500
O382        O  0.32557066  0.18228660  0.36693199    -0.39400
O383        O  0.42545845  0.30979971  0.39028754    -0.40100
O384        O  0.44993638  0.26821033  0.40312705    -0.40200
C385        C  0.37930209  0.34453568  0.50793039    -0.12500
C386        C  0.34998383  0.35268488  0.00377275     0.04500
C387        C  0.34431832  0.38438483  0.99918676    -0.07800
C388        C  0.36845787  0.40536437  0.99955482    -0.08500
C389        C  0.39871742  0.39607804  0.00495387    -0.03100
C390        C  0.40281420  0.36623096  0.50939091     0.03800
N391        N  0.43260920  0.35556728  0.51735104     0.66300
H392        H  0.38507468  0.32061619  0.51157695     0.15200
H393        H  0.36322959  0.42926706  0.99508553     0.14900
N394        N  0.31437385  0.39599752  0.99353406     0.74000
O395        O  0.44071585  0.35608973  0.54518773    -0.39500
O396        O  0.44656336  0.33815422  0.49894681    -0.39400
O397        O  0.30067364  0.41015090  0.01475676    -0.40100
O398        O  0.30269521  0.40548101  0.47067107    -0.40200
C399        C  0.36916314  0.09485855  0.00631468    -0.12500
C400        C  0.39843797  0.10280705  0.99618750     0.04500
C401        C  0.40213880  0.13134568  0.50923353    -0.07800
C402        C  0.37860097  0.15308377  0.50809243    -0.08500
C403        C  0.35096501  0.14719753  0.99896797    -0.03100
C404        C  0.34571076  0.11656453  0.00820321     0.03800
N405        N  0.31707825  0.10713753  0.02053690     0.66300
H406        H  0.36442395  0.07156785  0.01329670     0.15200
H407        H  0.38290491  0.17579048  0.51731041     0.14900
N408        N  0.43017626  0.13986535  0.52360309     0.74000
O409        O  0.29874400  0.09243161  0.00372509    -0.39500
O410        O  0.31324334  0.10731585  0.04927377    -0.39400
O411        O  0.44893919  0.15620599  0.50906409    -0.40100
O412        O  0.43284722  0.13724651  0.55236308    -0.40200
C413        C  0.15462039  0.37969279  0.00996352    -0.12500
C414        C  0.14660564  0.35035375  0.99935752     0.04500
C415        C  0.11642908  0.34597649  0.49052296    -0.07800
C416        C  0.09437884  0.36899696  0.49267991    -0.08500
C417        C  0.10260363  0.39786367  0.00301180    -0.03100
C418        C  0.13314717  0.40332201  0.01190585     0.03800
N419        N  0.14286982  0.43234905  0.02366558     0.66300
H420        H  0.17773536  0.38438632  0.01737004     0.15200
H421        H  0.07196196  0.36458567  0.48317790     0.14900
N422        N  0.10812078  0.31796606  0.47584597     0.74000
O423        O  0.13985786  0.43794044  0.05195628    -0.39500
O424        O  0.15194875  0.45136883  0.51874489    -0.39400
O425        O  0.09212967  0.29780751  0.99463835    -0.40100
O426        O  0.10856523  0.31660723  0.44688196    -0.40200
C427        C  0.09532170  0.12987598  0.01297566    -0.12500
C428        C  0.10138920  0.10104222  0.00001545     0.04500
C429        C  0.12659708  0.09850627  0.48240476    -0.07800
C430        C  0.15355317  0.11730323  0.99067101    -0.08500
C431        C  0.14730407  0.14657027  0.00273967    -0.03100
C432        C  0.11779264  0.15254061  0.01439978     0.03800
N433        N  0.11062060  0.18078865  0.02946608     0.66300
H434        H  0.07312664  0.13472813  0.02274743     0.15200
H435        H  0.17611280  0.11187151  0.98240604     0.14900
N436        N  0.13091143  0.07252635  0.46266485     0.74000
O437        O  0.09395617  0.20165366  0.51786287    -0.39500
O438        O  0.11387875  0.18271164  0.05822547    -0.39400
O439        O  0.11454353  0.06944471  0.43896430    -0.40100
O440        O  0.15319740  0.04653389  0.98594983    -0.40200
C441        C  0.37309053  0.01529561  0.40112077    -0.12500
C442        C  0.39984342  0.99835412  0.39610580     0.04500
C443        C  0.40449090  0.48585314  0.36806321    -0.07800
C444        C  0.38118509  0.48600720  0.34598843    -0.08500
C445        C  0.35309669  0.99988091  0.35121249    -0.03100
C446        C  0.34984301  0.01619778  0.37911576     0.03800
N447        N  0.32369555  0.03489390  0.38503873     0.66300
H448        H  0.37032638  0.02834485  0.42217552     0.15200
H449        H  0.38451081  0.47333957  0.32479315     0.14900
N450        N  0.43163616  0.46857964  0.36218793     0.74000
O451        O  0.30282769  0.02469775  0.40207725    -0.39500
O452        O  0.32501576  0.06334315  0.37980749    -0.39400
O453        O  0.43626430  0.44362148  0.37615415    -0.40100
O454        O  0.45269677  0.48022124  0.34635983    -0.40200
C455        C  0.09596186  0.50392739  0.36993686    -0.12500
C456        C  0.10404030  0.99685311  0.39971348     0.04500
C457        C  0.13298383  0.98300305  0.40385735    -0.07800
C458        C  0.15493643  0.98469872  0.38048323    -0.08500
C459        C  0.14884776  0.99984361  0.35263452    -0.03100
C460        C  0.11780070  0.50552023  0.34657380     0.03800
N461        N  0.10825960  0.51617949  0.31701166     0.66300
H462        H  0.07282252  0.51068436  0.36451030     0.15200
H463        H  0.17675435  0.97351571  0.38398270     0.14900
N464        N  0.14023570  0.96612206  0.43104706     0.74000
O465        O  0.09431139  0.49812257  0.29920429    -0.39500
O466        O  0.11500229  0.05979030  0.32228058    -0.39400
O467        O  0.14045271  0.44282117  0.43766595    -0.40100
O468        O  0.15564819  0.97896412  0.45189295    -0.40200
C469        C  0.11878936  0.48901486  0.15712022    -0.12500
C470        C  0.14677981  0.99822629  0.14841189     0.04500
C471        C  0.14968271  0.01326241  0.11987239    -0.07800
C472        C  0.12597111  0.01211912  0.09845278    -0.08500
C473        C  0.09883613  0.99635230  0.10459354    -0.03100
C474        C  0.09469877  0.48839255  0.13597317     0.03800
N475        N  0.06634273  0.47539563  0.14537265     0.66300
H476        H  0.11495413  0.47984118  0.17992336     0.15200
H477        H  0.12860116  0.02449597  0.07702819     0.14900
N478        N  0.17563966  0.03161496  0.11292256     0.74000
O479        O  0.04766134  0.49180012  0.16010472    -0.39500
O480        O  0.06353820  0.44658408  0.14599345    -0.39400
O481        O  0.19452757  0.02215490  0.09321490    -0.40100
O482        O  0.17513757  0.05973878  0.11986630    -0.40200
C483        C  0.34287603  0.00421115  0.11730388    -0.12500
C484        C  0.35058080  0.99318203  0.14657825     0.04500
C485        C  0.38184827  0.48731186  0.15327232    -0.07800
C486        C  0.40348865  0.48836623  0.12980759    -0.08500
C487        C  0.39463200  0.99555014  0.09895508    -0.03100
C488        C  0.36425415  0.00523359  0.09357614     0.03800
N489        N  0.35471325  0.01749503  0.06470629     0.66300
H490        H  0.32011478  0.01282201  0.11277441     0.15200
H491        H  0.42613568  0.47952765  0.13447827     0.14900
N492        N  0.39073425  0.47466768  0.18223849     0.74000
O493        O  0.34248185  0.51020765  0.04753952    -0.39500
O494        O  0.35022210  0.04601904  0.06262958    -0.39400
O495        O  0.39099261  0.44591067  0.18566536    -0.40100
O496        O  0.40417181  0.98219517  0.19927599    -0.40200
C497        C  0.01530139  0.12730794  0.40196512    -0.12500
C498        C  0.00012108  0.09965264  0.39568707     0.04500
C499        C  0.48580869  0.09604675  0.36724715    -0.07800
C500        C  0.48656163  0.11979396  0.34562852    -0.08500
C501        C  0.00133760  0.14759156  0.35173393    -0.03100
C502        C  0.01629664  0.15103127  0.38031923     0.03800
N503        N  0.03402310  0.17764279  0.38719339     0.66300
H504        H  0.02705463  0.13037007  0.42368837     0.15200
H505        H  0.47496709  0.11650472  0.32385512     0.14900
N506        N  0.46948362  0.06866623  0.35980510     0.74000
O507        O  0.02300500  0.19816426  0.40441882    -0.39500
O508        O  0.06241967  0.17683940  0.38276687    -0.39400
O509        O  0.44092678  0.06816197  0.36304175    -0.40100
O510        O  0.48219290  0.04834405  0.34354657    -0.40200
C511        C  0.01255880  0.40481181  0.36908757    -0.12500
C512        C  0.99897863  0.39823026  0.39747219     0.04500
C513        C  0.48801964  0.36764911  0.40353595    -0.07800
C514        C  0.49037755  0.34542356  0.38050939    -0.08500
C515        C  0.00191063  0.35312230  0.35089101    -0.03100
C516        C  0.01391070  0.38277220  0.34577864     0.03800
N517        N  0.02868139  0.39066505  0.31765411     0.66300
H518        H  0.02268964  0.42710137  0.36502757     0.15200
H519        H  0.48241693  0.32246290  0.38533834     0.14900
N520        N  0.47372512  0.35961933  0.43182918     0.74000
O521        O  0.01415129  0.40579699  0.29770511    -0.39500
O522        O  0.05738538  0.38975723  0.31633907    -0.39400
O523        O  0.44743235  0.36970787  0.43794721    -0.40100
O524        O  0.48851627  0.34486625  0.45185339    -0.40200
C525        C  0.48565344  0.40345411  0.13004774    -0.12500
C526        C  0.99969784  0.39777183  0.10229766     0.04500
C527        C  0.01526411  0.36975768  0.09786797    -0.07800
C528        C  0.01363385  0.34695108  0.12030651    -0.08500
C529        C  0.99781047  0.35211258  0.14786436    -0.03100
C530        C  0.48489210  0.38128959  0.15308429     0.03800
N531        N  0.46985793  0.38869154  0.18126132     0.66300
H532        H  0.47455807  0.42534976  0.13411314     0.15200
H533        H  0.02591569  0.32562324  0.11672658     0.14900
N534        N  0.03450373  0.36505581  0.07175872     0.74000
O535        O  0.44133335  0.38569434  0.18303851    -0.39500
O536        O  0.48348099  0.40509080  0.20084784    -0.39400
O537        O  0.05872377  0.38036979  0.06906454    -0.40100
O538        O  0.02576492  0.34811422  0.04992876    -0.40200
C539        C  0.48600958  0.12858381  0.09603663    -0.12500
C540        C  0.99943417  0.10058227  0.10260400     0.04500
C541        C  0.01122514  0.09554305  0.13248236    -0.07800
C542        C  0.01005477  0.11909399  0.15429403    -0.08500
C543        C  0.99676598  0.14761067  0.14738421    -0.03100
C544        C  0.48434181  0.15198905  0.11793148     0.03800
N545        N  0.46836474  0.17952533  0.11013140     0.66300
H546        H  0.47596189  0.13250629  0.07359887     0.15200
H547        H  0.01982383  0.11501601  0.17679573     0.14900
N548        N  0.02474145  0.06689941  0.14112974     0.74000
O549        O  0.48183333  0.19999324  0.09487136    -0.39500
O550        O  0.43965540  0.17992270  0.11162248    -0.39400
O551        O  0.05337445  0.06469767  0.14270396    -0.40100
O552        O  0.00852421  0.04690917  0.15415797    -0.40200
O553        O  0.99507660  0.04980737  0.58701888    -0.86700
O554        O  0.00126351  0.04801261  0.91112334    -0.86900
O555        O  0.04735644  0.08745753  0.49934605    -0.88500
O556        O  0.44958288  0.08647772  0.49834199    -0.87300
O557        O  0.41309265  0.04893417  0.49799718    -0.86900
O558        O  0.08477816  0.05055370  0.49966298    -0.88200
O559        O  0.00059807  0.08517447  0.94834759    -0.86700
O560        O  0.99708877  0.08636696  0.54910556    -0.86300
Zr561      Zr  0.99867061  0.06111275  0.49888072     2.84300
O562        O  0.46923047  0.03043442  0.96806232    -1.08300
O563        O  0.02954708  0.03136131  0.53118478    -1.09000
C564        C  0.99541457  0.07782781  0.57752864     1.06400
C565        C  0.00107528  0.07630151  0.91990371     1.06400
C566        C  0.07547217  0.07871755  0.49908639     1.09300
C567        C  0.42161252  0.07737520  0.49816656     1.07100
H568        H  0.04446304  0.04299063  0.95629772     0.32700
O569        O  0.03120864  0.03015693  0.96915667    -1.29200
H570        H  0.45489088  0.04296287  0.54240428     0.32400
O571        O  0.46787994  0.03039543  0.53011322    -1.30900
O572        O  0.00139890  0.44997417  0.91323110    -0.86700
O573        O  0.99614819  0.45097671  0.58732200    -0.88200
O574        O  0.08827042  0.99806741  0.95241598    -0.86800
O575        O  0.41375181  0.99928670  0.94836313    -0.86800
O576        O  0.41172979  0.99814833  0.54755884    -0.86500
O577        O  0.08456137  0.00127318  0.55145089    -0.86300
O578        O  0.04915986  0.41314074  0.50283135    -0.86700
O579        O  0.44905420  0.41255075  0.50235482    -0.86200
O580        O  0.08632470  0.44993929  0.50498914    -0.87200
O581        O  0.41269047  0.45032190  0.50157335    -0.86400
O582        O  0.05189025  0.99867148  0.91454271    -0.86800
O583        O  0.04742007  0.00131126  0.58843875    -0.86500
O584        O  0.44817318  0.99780044  0.58529713    -0.86200
O585        O  0.45111997  0.99912696  0.91160526    -0.86600
O586        O  0.00098511  0.41271567  0.95030776    -0.86900
O587        O  0.99868207  0.41346791  0.55021032    -0.88200
Zr588      Zr  0.00102929  0.99902033  0.93767539     2.83900
Zr589      Zr  0.99837875  0.00028394  0.56171963     2.83500
Zr590      Zr  0.06103518  0.00009929  0.50093725     2.84100
Zr591      Zr  0.43830852  0.99871694  0.49865643     2.83400
Zr592      Zr  0.99894353  0.43782865  0.50031616     2.84200
O593        O  0.46734067  0.46932063  0.53100423    -1.08800
O594        O  0.03215661  0.46796172  0.97035043    -1.08300
C595        C  0.00086305  0.42179612  0.92203974     1.06400
C596        C  0.99758411  0.42279370  0.57831670     1.09000
C597        C  0.07992691  0.99834194  0.92391636     1.06600
C598        C  0.42293257  0.99906877  0.92021922     1.06900
C599        C  0.42016103  0.99757835  0.57597493     1.06500
C600        C  0.07555844  0.00139102  0.57967806     1.06100
C601        C  0.07732440  0.42183326  0.50475297     1.06500
C602        C  0.42105458  0.42174831  0.50279767     1.06000
H603        H  0.04109190  0.45622151  0.54539059     0.32700
O604        O  0.02893649  0.46878226  0.53212568    -1.29900
H605        H  0.45684446  0.45539118  0.95594698     0.32700
O606        O  0.46953761  0.46824354  0.96880653    -1.31200
O607        O  0.00081015  0.20056523  0.66128397    -0.86700
O608        O  0.00069785  0.20188678  0.83652577    -0.86900
O609        O  0.04817288  0.16249254  0.74526369    -0.88500
O610        O  0.44883095  0.16518241  0.74962181    -0.87300
O611        O  0.41191594  0.20239229  0.74982562    -0.86900
O612        O  0.08487508  0.19986965  0.74569820    -0.88200
O613        O  0.99994664  0.16464984  0.79935825    -0.86700
O614        O  0.99832894  0.16359103  0.69878111    -0.86300
Zr615      Zr  0.99906406  0.18893488  0.74881967     2.84300
O616        O  0.46902860  0.22074283  0.78026987    -1.08300
O617        O  0.02985242  0.21956881  0.71763941    -1.09000
C618        C  0.99972979  0.17238600  0.67045917     1.06400
C619        C  0.00046063  0.17355240  0.82775128     1.06400
C620        C  0.07621850  0.17147429  0.74460440     1.09300
C621        C  0.42062089  0.17405277  0.74984976     1.07100
H622        H  0.04367276  0.20680438  0.79220161     0.32700
O623        O  0.03072014  0.21962362  0.77963093    -1.29200
H624        H  0.45576558  0.20749353  0.70511651     0.32400
O625        O  0.46856290  0.22033541  0.71795408    -1.30900
O626        O  0.00151570  0.30184268  0.83489239    -0.86700
O627        O  0.99903699  0.30048383  0.66114644    -0.88200
O628        O  0.08770562  0.25140539  0.79696845    -0.86800
O629        O  0.41487326  0.25141796  0.80066046    -0.86800
O630        O  0.41311736  0.25110256  0.69894747    -0.86500
O631        O  0.08673785  0.24972515  0.69932528    -0.86300
O632        O  0.04814947  0.33895099  0.74697509    -0.86700
O633        O  0.44970300  0.33888321  0.74972367    -0.86200
O634        O  0.08476769  0.30139865  0.74710133    -0.87200
O635        O  0.41273179  0.30171217  0.74787403    -0.86400
O636        O  0.05095589  0.25243583  0.83421239    -0.86800
O637        O  0.04975317  0.24977791  0.66209752    -0.86500
O638        O  0.45000094  0.25142789  0.66154271    -0.86200
O639        O  0.45177882  0.25173185  0.83796860    -0.86600
O640        O  0.00101928  0.33893643  0.79761874    -0.86900
O641        O  0.99656025  0.33764808  0.69856214    -0.88200
Zr642      Zr  0.00047771  0.25143266  0.81060283     2.83100
Zr643      Zr  0.99938633  0.25060222  0.68653776     2.83500
Zr644      Zr  0.06083922  0.25069309  0.74817618     2.84100
Zr645      Zr  0.43803890  0.25168005  0.74928379     2.83400
Zr646      Zr  0.99923488  0.31283562  0.74834413     2.84200
O647        O  0.46873460  0.28210665  0.71774600    -1.08800
O648        O  0.03075431  0.28229889  0.77930445    -1.08300
C649        C  0.00164950  0.33010587  0.82588452     1.06400
C650        C  0.99730176  0.32866516  0.67032906     1.09000
C651        C  0.07904261  0.25215231  0.82525722     1.06600
C652        C  0.42368492  0.25141447  0.82914750     1.06900
C653        C  0.42195941  0.25135517  0.67059766     1.06500
C654        C  0.07792097  0.24945982  0.67110784     1.06100
C655        C  0.07616286  0.32986582  0.74667945     1.06500
C656        C  0.42164123  0.32996593  0.74877704     1.06000
H657        H  0.04273225  0.29466135  0.70408476     0.32700
O658        O  0.03017748  0.28194389  0.71709086    -1.29900
H659        H  0.45627197  0.29570591  0.79306297     0.32700
O660        O  0.46887487  0.28280750  0.78020305    -1.31200
O661        O  0.33553998  0.49991810  0.69973262    -0.86700
O662        O  0.16184917  0.50201203  0.70183691    -0.86900
O663        O  0.24771996  0.45196579  0.66147950    -0.88500
O664        O  0.25171122  0.05082183  0.66372606    -0.87300
O665        O  0.25137350  0.08801629  0.70085452    -0.86900
O666        O  0.24873958  0.41499526  0.69876734    -0.88200
O667        O  0.19799169  0.50302924  0.66383453    -0.86700
O668        O  0.29820062  0.50023765  0.66285011    -0.86300
Zr669      Zr  0.24839137  0.50076452  0.68819964     2.84300
O670        O  0.21943775  0.03126483  0.71814752    -1.08300
O671        O  0.27985903  0.46962577  0.71855271    -1.09000
C672        C  0.32644934  0.49998451  0.67153061     1.06400
C673        C  0.17005314  0.50300591  0.67332524     1.06400
C674        C  0.24808869  0.42374929  0.67029836     1.09300
C675        C  0.25192483  0.07913809  0.67268885     1.07100
H676        H  0.20509092  0.45708039  0.70682686     0.32700
O677        O  0.21804090  0.46970546  0.71948426    -1.29200
H678        H  0.29449508  0.04346218  0.70562576     0.32400
O679        O  0.28144830  0.03093896  0.71823991    -1.30900
O680        O  0.16378316  0.50186937  0.80185160    -0.86700
O681        O  0.33733575  0.50050078  0.79914015    -0.88200
O682        O  0.20071198  0.41262704  0.75084338    -0.86800
O683        O  0.20079293  0.08773822  0.74827339    -0.86800
O684        O  0.30095844  0.08559626  0.75029526    -0.86500
O685        O  0.29927460  0.41336903  0.74738726    -0.86300
O686        O  0.25151184  0.45240116  0.83852811    -0.86700
O687        O  0.25124986  0.05048112  0.83534282    -0.86200
O688        O  0.25067414  0.41543001  0.80106421    -0.87200
O689        O  0.25156781  0.08775501  0.79825792    -0.86400
O690        O  0.16391295  0.45001697  0.75180824    -0.86800
O691        O  0.33607774  0.45073930  0.74884617    -0.86500
O692        O  0.33780158  0.04838750  0.75018450    -0.86200
O693        O  0.16357617  0.05087902  0.74717905    -0.86600
O694        O  0.20158412  0.50156907  0.83838927    -0.86900
O695        O  0.30102917  0.50268410  0.83692892    -0.88200
Zr696      Zr  0.18802878  0.50073831  0.75134955     2.83100
Zr697      Zr  0.31092290  0.50035392  0.74960368     2.83500
Zr698      Zr  0.24966333  0.43880414  0.74993166     2.84100
Zr699      Zr  0.25046346  0.06173872  0.74938660     2.83400
Zr700      Zr  0.25087016  0.50116950  0.81202623     2.84200
O701        O  0.28092062  0.03087861  0.78076249    -1.08800
O702        O  0.21951533  0.46983422  0.78175600    -1.08300
C703        C  0.17325754  0.50201701  0.83001253     1.06400
C704        C  0.32900694  0.50192841  0.82759070     1.09000
C705        C  0.17263540  0.42156731  0.75129943     1.06600
C706        C  0.17258934  0.07913385  0.74729228     1.06900
C707        C  0.32914917  0.07670745  0.75039872     1.06500
C708        C  0.32727001  0.42255706  0.74763235     1.06100
C709        C  0.25130914  0.42421678  0.82953648     1.06500
C710        C  0.25189432  0.07872528  0.82638740     1.06000
H711        H  0.29397412  0.45664319  0.79363612     0.32700
O712        O  0.28099188  0.46938134  0.78100476    -1.29900
H713        H  0.20634214  0.04465330  0.79286954     0.32700
O714        O  0.21894405  0.03153676  0.78022459    -1.31200
O715        O  0.19945966  0.16162803  0.00080238    -0.86700
O716        O  0.19843488  0.33511776  0.99879728    -0.86900
O717        O  0.16157486  0.25105819  0.54824857    -0.88500
O718        O  0.16150000  0.24811963  0.95017282    -0.87300
O719        O  0.19855428  0.24882488  0.91323911    -0.86900
O720        O  0.19870517  0.24994622  0.58536029    -0.88200
O721        O  0.16163080  0.29793515  0.99847190    -0.86700
O722        O  0.16253029  0.19886201  0.00145102    -0.86300
Zr723      Zr  0.18743290  0.24866081  0.99933488     2.84300
O724        O  0.21777250  0.27998049  0.96828635    -1.08300
O725        O  0.21744685  0.21773961  0.53065199    -1.09000
C726        C  0.17134146  0.17057513  0.00182474     1.06400
C727        C  0.17037412  0.32615790  0.99855488     1.06400
C728        C  0.17053211  0.25109317  0.57644039     1.09300
C729        C  0.17037364  0.24835131  0.92197697     1.07100
H730        H  0.20545371  0.29291507  0.54323683     0.32700
O731        O  0.21800217  0.27996584  0.53038627    -1.29200
H732        H  0.20523843  0.20471013  0.95539846     0.32400
O733        O  0.21792954  0.21761372  0.96805757    -1.30900
O734        O  0.29741459  0.33751349  0.00156088    -0.86700
O735        O  0.29867067  0.16211919  0.99931538    -0.88200
O736        O  0.24993623  0.29802403  0.58718705    -0.86800
O737        O  0.24890872  0.29834149  0.91158024    -0.86800
O738        O  0.24901614  0.19895842  0.91276573    -0.86500
O739        O  0.24966397  0.19857472  0.58523471    -0.86300
O740        O  0.33588335  0.24886144  0.54896997    -0.86700
O741        O  0.33472595  0.24897928  0.94911467    -0.86200
O742        O  0.29911624  0.24770717  0.58644320    -0.87200
O743        O  0.29812291  0.24789440  0.91151047    -0.86400
O744        O  0.24910843  0.33492705  0.54980864    -0.86800
O745        O  0.24951677  0.16130845  0.54817480    -0.86500
O746        O  0.24875895  0.16166825  0.94987424    -0.86200
O747        O  0.24871602  0.33525728  0.94908135    -0.86600
O748        O  0.33436211  0.30030932  0.00140744    -0.86900
O749        O  0.33538661  0.19945387  0.99991528    -0.88200
Zr750      Zr  0.24849374  0.31087032  0.99954482     2.83100
Zr751      Zr  0.24897796  0.18725264  0.99945315     2.83500
Zr752      Zr  0.24903346  0.24871373  0.56106038     2.84100
Zr753      Zr  0.24883839  0.24893194  0.93756510     2.83400
Zr754      Zr  0.31039160  0.24956325  0.99984775     2.84200
O755        O  0.27987374  0.21825356  0.96871375    -1.08800
O756        O  0.27941213  0.27984618  0.53005053    -1.08300
C757        C  0.32557103  0.32872431  0.00213607     1.06400
C758        C  0.32670076  0.17109641  0.99958264     1.09000
C759        C  0.24967141  0.32625348  0.57826585     1.06600
C760        C  0.24890331  0.32657563  0.92062528     1.06900
C761        C  0.24876953  0.17069453  0.92165902     1.06500
C762        C  0.25015142  0.17027826  0.57634375     1.06100
C763        C  0.32721199  0.24810903  0.57735465     1.06500
C764        C  0.32618353  0.24826320  0.92056921     1.06000
H765        H  0.29236033  0.20476935  0.54239805     0.32700
O766        O  0.27949351  0.21766494  0.52980626    -1.29900
H767        H  0.29236392  0.29312391  0.95575797     0.32700
O768        O  0.27968320  0.28030125  0.96844303    -1.31200
C769        C  0.25328539  0.09358256  0.61775600    -0.12500
C770        C  0.25277431  0.10301233  0.64859508     0.04500
C771        C  0.25270818  0.13483914  0.65530246    -0.07800
C772        C  0.25194425  0.15601641  0.63139361    -0.08500
C773        C  0.25164013  0.14654079  0.60054567    -0.03100
C774        C  0.25287535  0.11476345  0.59387769     0.03800
N775        N  0.25405767  0.10325388  0.56314468     0.66300
H776        H  0.25387218  0.06942653  0.61179538     0.15200
H777        H  0.25149300  0.18017724  0.63731841     0.14900
N778        N  0.25333493  0.14639764  0.68606564     0.74000
O779        O  0.27937341  0.09479352  0.55232588    -0.39500
O780        O  0.22981552  0.09425377  0.55040372    -0.39400
O781        O  0.27857567  0.15366218  0.69792224    -0.40100
O782        O  0.22907275  0.15664981  0.69777824    -0.40200
C783        C  0.24732802  0.38162507  0.59292390    -0.12500
C784        C  0.24955011  0.35080392  0.60224350     0.04500
C785        C  0.25118287  0.34450040  0.63414631    -0.07800
C786        C  0.24991341  0.36851992  0.65544530    -0.08500
C787        C  0.24797827  0.39933816  0.64617482    -0.03100
C788        C  0.24672873  0.40571687  0.61422896     0.03800
N789        N  0.24490426  0.43636244  0.60264026     0.66300
H790        H  0.24603229  0.38737739  0.56873877     0.15200
H791        H  0.25085551  0.36271884  0.67961597     0.14900
N792        N  0.25495601  0.31402788  0.64567439     0.74000
O793        O  0.21906591  0.44796102  0.59725227    -0.39500
O794        O  0.26818520  0.44819135  0.59053807    -0.39400
O795        O  0.28123092  0.30505013  0.65341826    -0.40100
O796        O  0.23198622  0.29972219  0.65545914    -0.40200
C797        C  0.24758847  0.36927582  0.84397868    -0.12500
C798        C  0.25154502  0.39980576  0.85341583     0.04500
C799        C  0.25494625  0.40588633  0.88524188    -0.07800
C800        C  0.25398221  0.38173397  0.90635264    -0.08500
C801        C  0.24959096  0.35118338  0.89687934    -0.03100
C802        C  0.24631157  0.34523325  0.86506268     0.03800
N803        N  0.24076203  0.31516649  0.85335758     0.66300
H804        H  0.24490197  0.36373473  0.81985811     0.15200
H805        H  0.25665058  0.38720717  0.93048497     0.14900
N806        N  0.25939026  0.43626176  0.89685873     0.74000
O807        O  0.21357116  0.30687568  0.84914753    -0.39500
O808        O  0.26162698  0.30188007  0.83852493    -0.39400
O809        O  0.23729766  0.45010147  0.90925336    -0.40100
O810        O  0.28613813  0.44558553  0.90189626    -0.40200
C811        C  0.23921503  0.09533800  0.87899145    -0.12500
C812        C  0.25206966  0.10245603  0.85045565     0.04500
C813        C  0.26337019  0.13232589  0.84533734    -0.07800
C814        C  0.26146772  0.15420237  0.86869924    -0.08500
C815        C  0.24906686  0.14694728  0.89743088    -0.03100
C816        C  0.23745633  0.11720632  0.90228615     0.03800
N817        N  0.22071907  0.10972725  0.92926746     0.66300
H818        H  0.22936638  0.07290736  0.88301086     0.15200
H819        H  0.26994145  0.17700572  0.86442094     0.14900
N820        N  0.27780704  0.14059033  0.81711714     0.74000
O821        O  0.19209251  0.11214251  0.92842543    -0.39500
O822        O  0.23295035  0.09300442  0.94950767    -0.39400
O823        O  0.26377041  0.15729799  0.79808580    -0.40100
O824        O  0.30617738  0.13682388  0.81431304    -0.40200
C825        C  0.40589311  0.11864875  0.75140322    -0.12500
C826        C  0.39671242  0.14959157  0.75014480     0.04500
C827        C  0.36503907  0.15602354  0.74899536    -0.07800
C828        C  0.34390080  0.13202106  0.74930245    -0.08500
C829        C  0.35307023  0.10110835  0.75053472    -0.03100
C830        C  0.38472831  0.09463540  0.75150472     0.03800
N831        N  0.39616291  0.06390910  0.75197729     0.66300
H832        H  0.42987308  0.11272943  0.75215476     0.15200
H833        H  0.31992913  0.13793214  0.74834403     0.14900
N834        N  0.35353960  0.18666118  0.74699365     0.74000
O835        O  0.40527272  0.05196193  0.72720834    -0.39500
O836        O  0.40434684  0.05224908  0.77721994    -0.39400
O837        O  0.34463577  0.19659587  0.72127035    -0.40100
O838        O  0.34452362  0.19989574  0.77114335    -0.40200
C839        C  0.37527420  0.40108594  0.76844040    -0.12500
C840        C  0.35143511  0.39906879  0.74709786     0.04500
C841        C  0.35099634  0.37465941  0.72587859    -0.07800
C842        C  0.37383924  0.35208608  0.72696525    -0.08500
C843        C  0.39771620  0.35397158  0.74850347    -0.03100
C844        C  0.39830793  0.37885158  0.76934423     0.03800
N845        N  0.42116198  0.38104960  0.79266621     0.66300
H846        H  0.37566976  0.41971765  0.78498997     0.15200
H847        H  0.37338441  0.33345609  0.71043011     0.14900
N848        N  0.32822959  0.37334229  0.70236967     0.74000
O849        O  0.44317299  0.39921093  0.78890090    -0.39500
O850        O  0.41525857  0.37149263  0.81935597    -0.39400
O851        O  0.32798330  0.39317133  0.68123948    -0.40100
O852        O  0.30588921  0.35545859  0.70533986    -0.40200
C853        C  0.12883553  0.15442172  0.75764343    -0.12500
C854        C  0.10071323  0.14765947  0.74372834     0.04500
C855        C  0.09682704  0.11834769  0.73015647    -0.07800
C856        C  0.12059223  0.09669462  0.73132013    -0.08500
C857        C  0.14847773  0.10331280  0.74588828    -0.03100
C858        C  0.15239434  0.13270147  0.75909299     0.03800
N859        N  0.17930686  0.14034721  0.77592132     0.66300
H860        H  0.13234329  0.17653716  0.76851997     0.15200
H861        H  0.11712946  0.07446982  0.72065566     0.14900
N862        N  0.06931495  0.11025455  0.71448818     0.74000
O863        O  0.19989481  0.15576918  0.76298734    -0.39500
O864        O  0.17904322  0.13847825  0.80485754    -0.39400
O865        O  0.06925288  0.10887409  0.68551023    -0.40100
O866        O  0.04837576  0.09705532  0.72921138    -0.40200
C867        C  0.13054972  0.34470808  0.75343611    -0.12500
C868        C  0.10055561  0.35364939  0.74653544     0.04500
C869        C  0.09482186  0.38500981  0.74022538    -0.07800
C870        C  0.11838735  0.40651073  0.74279665    -0.08500
C871        C  0.14832997  0.39762908  0.75035178    -0.03100
C872        C  0.15427375  0.36601216  0.75521357     0.03800
N873        N  0.18417869  0.35474835  0.76179393     0.66300
H874        H  0.13590443  0.32078414  0.75743063     0.15200
H875        H  0.11325034  0.43029674  0.73763629     0.14900
N876        N  0.06598123  0.39526653  0.72881769     0.74000
O877        O  0.19232873  0.35164266  0.78943407    -0.39500
O878        O  0.19860737  0.34059018  0.74107163    -0.39400
O879        O  0.04939668  0.41204671  0.74552259    -0.40100
O880        O  0.06100814  0.39437881  0.70025477    -0.40200
C881        C  0.37735106  0.26691373  0.59705386    -0.12500
C882        C  0.35155576  0.24824643  0.60120648     0.04500
C883        C  0.34951713  0.23034935  0.62818256    -0.07800
C884        C  0.37244264  0.23208565  0.65059207    -0.08500
C885        C  0.39793285  0.25097509  0.64661386    -0.03100
C886        C  0.40037453  0.26845114  0.61946158     0.03800
N887        N  0.42544992  0.28883399  0.61496344     0.66300
H888        H  0.37930283  0.28097077  0.57662257     0.15200
H889        H  0.37079068  0.21777826  0.67083425     0.14900
N890        N  0.32546113  0.20872683  0.63230615     0.74000
O891        O  0.44752547  0.28072178  0.59826639    -0.39500
O892        O  0.42736911  0.31308824  0.63072180    -0.39400
O893        O  0.32875045  0.18179310  0.62208731    -0.40100
O894        O  0.30533496  0.21391949  0.65232017    -0.40200
C895        C  0.09506908  0.26201105  0.61828385    -0.12500
C896        C  0.10194867  0.24960731  0.64721213     0.04500
C897        C  0.13187297  0.23865027  0.65280282    -0.07800
C898        C  0.15365107  0.23965939  0.62948798    -0.08500
C899        C  0.14671261  0.25181141  0.60049949    -0.03100
C900        C  0.11707397  0.26360798  0.59516843     0.03800
N901        N  0.10911161  0.27852398  0.56703788     0.66300
H902        H  0.07260155  0.27135991  0.61371548     0.15200
H903        H  0.17615920  0.23046309  0.63415518     0.14900
N904        N  0.14067394  0.22594110  0.68176383     0.74000
O905        O  0.09331793  0.26418616  0.54751108    -0.39500
O906        O  0.11034897  0.30743339  0.56564953    -0.39400
O907        O  0.14246571  0.19716157  0.68453008    -0.40100
O908        O  0.15431416  0.24280356  0.70094277    -0.40200
C909        C  0.15508553  0.25681701  0.86764883    -0.12500
C910        C  0.14660864  0.24860496  0.89759998     0.04500
C911        C  0.11563502  0.24172168  0.90339232    -0.07800
C912        C  0.09431729  0.24343920  0.87956377    -0.08500
C913        C  0.10281348  0.25178630  0.84962000    -0.03100
C914        C  0.13373605  0.25875749  0.84388713     0.03800
N915        N  0.14388136  0.26941150  0.81463911     0.66300
H916        H  0.17853684  0.26228114  0.86251331     0.15200
H917        H  0.07089975  0.23755542  0.88462832     0.14900
N918        N  0.10532353  0.23179656  0.93288437     0.74000
O919        O  0.14712072  0.29789632  0.81071335    -0.39500
O920        O  0.15763398  0.25103523  0.79698731    -0.39400
O921        O  0.08840761  0.24931904  0.94846245    -0.40100
O922        O  0.10591040  0.20353230  0.93914285    -0.40200
C923        C  0.36972936  0.24245809  0.84427185    -0.12500
C924        C  0.39937795  0.25053710  0.85318975     0.04500
C925        C  0.40453035  0.25756502  0.88458675    -0.07800
C926        C  0.38048684  0.25640415  0.90570476    -0.08500
C927        C  0.35075571  0.24853596  0.89672277    -0.03100
C928        C  0.34567968  0.24142125  0.86533744     0.03800
N929        N  0.31659659  0.23217785  0.85409763     0.66300
H930        H  0.36490641  0.23666856  0.82053948     0.15200
H931        H  0.38530887  0.26222457  0.92944020     0.14900
N932        N  0.43356769  0.26718960  0.89567669     0.74000
O933        O  0.29878859  0.25248117  0.84385793    -0.39500
O934        O  0.31356731  0.20496657  0.84470652    -0.39400
O935        O  0.43640464  0.29448894  0.90487771    -0.40100
O936        O  0.45169524  0.24714973  0.90584888    -0.40200
C937        C  0.38010505  0.34349408  0.01017387    -0.12500
C938        C  0.34886470  0.35318074  0.50278159     0.04500
C939        C  0.34230329  0.38497771  0.49968425    -0.07800
C940        C  0.36599571  0.40657591  0.49992197    -0.08500
C941        C  0.39656119  0.39779957  0.50427824    -0.03100
C942        C  0.40420175  0.36459145  0.01117623     0.03800
N943        N  0.43373553  0.35341379  0.01947898     0.66300
H944        H  0.38519157  0.31960235  0.01487873     0.15200
H945        H  0.36017975  0.43054099  0.49667167     0.14900
N946        N  0.31179408  0.39610380  0.49653388     0.74000
O947        O  0.44132433  0.35336327  0.04746721    -0.39500
O948        O  0.44751549  0.33572745  0.00119557    -0.39400
O949        O  0.29711479  0.40355715  0.52032950    -0.40100
O950        O  0.30565959  0.39961815  0.96613297    -0.40200
C951        C  0.36843876  0.09382606  0.48621007    -0.12500
C952        C  0.39730250  0.10127127  0.49794821     0.04500
C953        C  0.40367133  0.13340346  0.98669805    -0.07800
C954        C  0.38008550  0.15508440  0.98819844    -0.08500
C955        C  0.34965115  0.14566555  0.49644479    -0.03100
C956        C  0.34476050  0.11545273  0.48546733     0.03800
N957        N  0.31611089  0.10616326  0.47308799     0.66300
H958        H  0.36412969  0.07100873  0.47725532     0.15200
H959        H  0.38459650  0.17822034  0.98033240     0.14900
N960        N  0.43223079  0.14269451  0.97408737     0.74000
O961        O  0.31214680  0.10706012  0.44437247    -0.39500
O962        O  0.29905472  0.08939014  0.48917421    -0.39400
O963        O  0.43545063  0.14311279  0.94527714    -0.40100
O964        O  0.45065863  0.15751495  0.99069439    -0.40200
C965        C  0.15285605  0.37945508  0.51550871    -0.12500
C966        C  0.14627012  0.35107268  0.50167005     0.04500
C967        C  0.11609157  0.34493124  0.99050212    -0.07800
C968        C  0.09458177  0.36846698  0.99258376    -0.08500
C969        C  0.10111008  0.39760451  0.50565782    -0.03100
C970        C  0.13067873  0.40257027  0.51776803     0.03800
N971        N  0.13842292  0.43043200  0.53330417     0.66300
H972        H  0.17528749  0.38368251  0.52505136     0.15200
H973        H  0.07149300  0.36371135  0.98512885     0.14900
N974        N  0.10661629  0.31625109  0.97785534     0.74000
O975        O  0.13855452  0.43099110  0.56230520    -0.39500
O976        O  0.16128695  0.44818239  0.00816732    -0.39400
O977        O  0.09237965  0.29886301  0.49062806    -0.40100
O978        O  0.10482058  0.31353140  0.94903822    -0.40200
C979        C  0.09394065  0.13055247  0.51391522    -0.12500
C980        C  0.09892962  0.10290902  0.49818530     0.04500
C981        C  0.13075634  0.09501640  0.98824804    -0.07800
C982        C  0.14949240  0.12075403  0.48449755    -0.08500
C983        C  0.14475560  0.14845512  0.50032205    -0.03100
C984        C  0.11626179  0.15343103  0.51472332     0.03800
N985        N  0.10971497  0.18120191  0.53092838     0.66300
H986        H  0.07268230  0.13434775  0.52599722     0.15200
H987        H  0.17074801  0.11693011  0.47284368     0.14900
N988        N  0.13746505  0.06686677  0.97269622     0.74000
O989        O  0.09445046  0.20043108  0.01569301    -0.39500
O990        O  0.11259444  0.18181272  0.55977991    -0.39400
O991        O  0.12546249  0.06122893  0.94690932    -0.40100
O992        O  0.14850176  0.05102681  0.47069233    -0.40200
C993        C  0.37086120  0.01315784  0.90279093    -0.12500
C994        C  0.39889885  0.99900504  0.89628039     0.04500
C995        C  0.40256257  0.48235962  0.86966026    -0.07800
C996        C  0.37961324  0.48373118  0.84713177    -0.08500
C997        C  0.35142268  0.99991011  0.85207788    -0.03100
C998        C  0.34728187  0.01377976  0.88115314     0.03800
N999        N  0.31988214  0.02987363  0.88872387     0.66300
H1000       H  0.36729722  0.02436440  0.92475789     0.15200
H1001       H  0.38183025  0.46969155  0.82666762     0.14900
N1002       N  0.42798113  0.46220975  0.86522047     0.74000
O1003       O  0.30040101  0.01704711  0.90564547    -0.39500
O1004       O  0.31878036  0.05859681  0.88514449    -0.39400
O1005       O  0.43062822  0.43835220  0.88144464    -0.40100
O1006       O  0.44969119  0.47030394  0.84811424    -0.40200
C1007       C  0.09942215  0.51516539  0.87426905    -0.12500
C1008       C  0.10401931  0.99925821  0.89978156     0.04500
C1009       C  0.13408233  0.98843179  0.90456978    -0.07800
C1010       C  0.15539813  0.98973970  0.88064791    -0.08500
C1011       C  0.14786458  0.00202070  0.85172930    -0.03100
C1012       C  0.12155740  0.51728950  0.85122020     0.03800
N1013       N  0.11559600  0.53662065  0.82539107     0.66300
H1014       H  0.07800537  0.52722714  0.87115042     0.15200
H1015       H  0.17802445  0.98064464  0.88474860     0.14900
N1016       N  0.14342510  0.97541949  0.93321440     0.74000
O1017       O  0.09920042  0.52677180  0.80368721    -0.39500
O1018       O  0.11015750  0.05822130  0.81893309    -0.39400
O1019       O  0.13892375  0.43898365  0.93275007    -0.40100
O1020       O  0.15929724  0.99137663  0.95136460    -0.40200
C1021       C  0.11726777  0.48926288  0.65678827    -0.12500
C1022       C  0.14840336  0.00262769  0.64649337     0.04500
C1023       C  0.15246145  0.01481721  0.61669895    -0.07800
C1024       C  0.12827839  0.01448373  0.59572226    -0.08500
C1025       C  0.09985712  0.00185611  0.60339682    -0.03100
C1026       C  0.09363836  0.48785679  0.63506258     0.03800
N1027       N  0.06617698  0.47225090  0.64307391     0.66300
H1028       H  0.11379888  0.47873854  0.67905830     0.15200
H1029       H  0.13185708  0.02438043  0.57317909     0.14900
N1030       N  0.18066046  0.02815441  0.60733108     0.74000
O1031       O  0.04619142  0.48612861  0.65864588    -0.39500
O1032       O  0.06508482  0.44338789  0.64085742    -0.39400
O1033       O  0.19763019  0.01348852  0.58906772    -0.40100
O1034       O  0.18449919  0.05667483  0.61054712    -0.40200
C1035       C  0.34402121  0.00379867  0.61777895    -0.12500
C1036       C  0.35217063  0.99508375  0.64778388     0.04500
C1037       C  0.38059475  0.49097829  0.65284282    -0.07800
C1038       C  0.40230665  0.49277021  0.62948961    -0.08500
C1039       C  0.39610342  0.99643108  0.59997031    -0.03100
C1040       C  0.36538688  0.00444519  0.59402176     0.03800
N1041       N  0.35538458  0.01407482  0.56427074     0.66300
H1042       H  0.32086289  0.01079326  0.61260273     0.15200
H1043       H  0.42521719  0.48483919  0.63445156     0.14900
N1044       N  0.38963197  0.47778948  0.68152253     0.74000
O1045       O  0.33976566  0.50742393  0.54726852    -0.39500
O1046       O  0.35468523  0.04234380  0.55801594    -0.39400
O1047       O  0.39084068  0.44895672  0.68398429    -0.40100
O1048       O  0.40766710  0.99191105  0.70018277    -0.40200
C1049       C  0.00016905  0.13157910  0.90502646    -0.12500
C1050       C  0.00138501  0.10067782  0.89578427     0.04500
C1051       C  0.49178440  0.09502378  0.86480064    -0.07800
C1052       C  0.49255941  0.11901234  0.84338432    -0.08500
C1053       C  0.00096828  0.14910729  0.85179350    -0.03100
C1054       C  0.99991342  0.15555178  0.88368444     0.03800
N1055       N  0.99787640  0.18619423  0.89516227     0.66300
H1056       H  0.99922298  0.13750125  0.92919609     0.15200
H1057       H  0.48756106  0.11366368  0.81957746     0.14900
N1058       N  0.48381188  0.06506792  0.85408428     0.74000
O1059       O  0.97238112  0.19613705  0.90411778    -0.39500
O1060       O  0.02183236  0.19968643  0.90376331    -0.39400
O1061       O  0.45618857  0.05898290  0.84884595    -0.40100
O1062       O  0.50422819  0.04802371  0.84280052    -0.40200
C1063       C  0.01162851  0.40582820  0.86840593    -0.12500
C1064       C  0.00018245  0.39835595  0.89752183     0.04500
C1065       C  0.48466538  0.37047207  0.90138595    -0.07800
C1066       C  0.48622479  0.34838031  0.87815835    -0.08500
C1067       C  0.00179754  0.35404438  0.85007939    -0.03100
C1068       C  0.01239587  0.38416868  0.84474924     0.03800
N1069       N  0.02539966  0.39293848  0.81604199     0.66300
H1070       H  0.02070870  0.42851241  0.86401805     0.15200
H1071       H  0.47567650  0.32636790  0.88178499     0.14900
N1072       N  0.46806910  0.36375252  0.92872820     0.74000
O1073       O  0.01118971  0.41167077  0.79915870    -0.39500
O1074       O  0.05348584  0.38858063  0.81163698    -0.39400
O1075       O  0.44377872  0.37814696  0.93470398    -0.40100
O1076       O  0.47981501  0.34644943  0.94872124    -0.40200
C1077       C  0.47564563  0.40049685  0.62628650    -0.12500
C1078       C  0.99825006  0.39915245  0.60209251     0.04500
C1079       C  0.01855706  0.37415877  0.60006968    -0.07800
C1080       C  0.01724203  0.35078192  0.62198817    -0.08500
C1081       C  0.99677344  0.35272907  0.64668735    -0.03100
C1082       C  0.47500462  0.37760135  0.64864225     0.03800
N1083       N  0.45248218  0.37935562  0.67227014     0.66300
H1084       H  0.45930122  0.41917717  0.62738901     0.15200
H1085       H  0.03310414  0.33172284  0.62045671     0.14900
N1086       N  0.04185285  0.37342644  0.57709171     0.74000
O1087       O  0.42566562  0.37072758  0.66643516    -0.39500
O1088       O  0.45711564  0.39657807  0.69513542    -0.39400
O1089       O  0.06283867  0.39318735  0.57759941    -0.40100
O1090       O  0.03918302  0.35590255  0.55413835    -0.40200
C1091       C  0.51549398  0.12729171  0.59743144    -0.12500
C1092       C  0.99512068  0.10216820  0.60109326     0.04500
C1093       C  0.97713496  0.10023946  0.62790912    -0.07800
C1094       C  0.97924468  0.12322052  0.65034779    -0.08500
C1095       C  0.99908848  0.14817144  0.64666395    -0.03100
C1096       C  0.51785166  0.15020314  0.61986337     0.03800
N1097       N  0.54024285  0.17362322  0.61600764     0.66300
H1098       H  0.52975216  0.12871913  0.57716641     0.15200
H1099       H  0.96489103  0.12181224  0.67054109     0.14900
N1100       N  0.95589519  0.07578477  0.63224781     0.74000
O1101       O  0.56704558  0.16871408  0.62537779    -0.39500
O1102       O  0.53558247  0.19470763  0.59670375    -0.39400
O1103       O  0.96196868  0.05479005  0.65126651    -0.40100
O1104       O  0.92887687  0.07891839  0.62276209    -0.40200
O1105       O  0.00068082  0.54932666  0.08801244    -0.86700
O1106       O  0.00202273  0.54804434  0.41148042    -0.86900
O1107       O  0.04904369  0.58679786  0.00137046    -0.88500
O1108       O  0.45074580  0.58703288  0.00155299    -0.87300
O1109       O  0.41423412  0.54964116  0.00011287    -0.86900
O1110       O  0.08590993  0.54943349  0.00349456    -0.88200
O1111       O  0.99975012  0.58545534  0.44854290    -0.86700
O1112       O  0.00116566  0.58595288  0.05021673    -0.86300
Zr1113     Zr  0.99988586  0.56102120  0.00019266     2.84300
O1114       O  0.47008321  0.53075305  0.46849493    -1.08300
O1115       O  0.03002396  0.53049221  0.03237401    -1.09000
C1116       C  0.00153656  0.57740930  0.07863816     1.06400
C1117       C  0.00094930  0.57633193  0.42022726     1.06400
C1118       C  0.07706518  0.57771649  0.00258432     1.09300
C1119       C  0.42276186  0.57804331  0.00115566     1.07100
H1120       H  0.04438738  0.54247856  0.45665613     0.32700
O1121       O  0.03137083  0.53027375  0.46937087    -1.29200
H1122       H  0.45599970  0.54340261  0.04383309     0.32400
O1123       O  0.46856868  0.53060213  0.03117385    -1.30900
O1124       O  0.00269141  0.94787583  0.41411262    -0.86700
O1125       O  0.99771824  0.94990675  0.08667229    -0.88200
O1126       O  0.08770375  0.49563529  0.45261840    -0.86800
O1127       O  0.41417850  0.50133832  0.44861855    -0.86800
O1128       O  0.41170324  0.50008347  0.04832711    -0.86500
O1129       O  0.08424099  0.49952683  0.05360133    -0.86300
O1130       O  0.05030707  0.91323683  0.00131560    -0.86700
O1131       O  0.45048076  0.91177087  0.00038587    -0.86200
O1132       O  0.08717210  0.95036721  0.00261475    -0.87200
O1133       O  0.41359664  0.94906489  0.99913562    -0.86400
O1134       O  0.05134313  0.49631729  0.41478844    -0.86800
O1135       O  0.04698727  0.49884591  0.09039427    -0.86500
O1136       O  0.44826283  0.50002642  0.08600901    -0.86200
O1137       O  0.45209526  0.50072033  0.41237713    -0.86600
O1138       O  0.00234846  0.91141510  0.45205811    -0.86900
O1139       O  0.00037775  0.91246357  0.04961300    -0.88200
Zr1140     Zr  0.00080417  0.49921566  0.43833722     2.83900
Zr1141     Zr  0.99878955  0.49953780  0.06274061     2.83500
Zr1142     Zr  0.06153290  0.49939291  0.00242039     2.84100
Zr1143     Zr  0.43853876  0.49919184  0.99963043     2.83400
Zr1144     Zr  0.99995646  0.93758962  0.99995853     2.84200
O1145       O  0.46785560  0.96827619  0.03008867    -1.08800
O1146       O  0.03142995  0.96809785  0.46988194    -1.08300
C1147       C  0.00296423  0.91986616  0.42372330     1.06400
C1148       C  0.99936642  0.92172836  0.07775806     1.09000
C1149       C  0.07936960  0.49515987  0.42408404     1.06600
C1150       C  0.42381339  0.50119193  0.42060883     1.06900
C1151       C  0.42023613  0.50026397  0.07670623     1.06500
C1152       C  0.07510834  0.49914420  0.08183870     1.06100
C1153       C  0.07841591  0.92217146  0.00237846     1.06500
C1154       C  0.42236092  0.92065410  0.00007088     1.06000
H1155       H  0.04231313  0.95555144  0.04476031     0.32700
O1156       O  0.02979476  0.96849695  0.03159030    -1.29900
H1157       H  0.45731918  0.95442390  0.45569497     0.32700
O1158       O  0.46967537  0.96746839  0.46837820    -1.31200
O1159       O  0.99928368  0.70233184  0.16114511    -0.86700
O1160       O  0.99897387  0.70058081  0.33728062    -0.86900
O1161       O  0.04833044  0.66174255  0.24838750    -0.88500
O1162       O  0.44992394  0.66345554  0.25109524    -0.87300
O1163       O  0.41311524  0.70077490  0.25218165    -0.86900
O1164       O  0.08507884  0.69888413  0.24766384    -0.88200
O1165       O  0.99858846  0.66380335  0.29949554    -0.86700
O1166       O  0.99977138  0.66499612  0.19824904    -0.86300
Zr1167     Zr  0.99957765  0.68865426  0.24913707     2.84300
O1168       O  0.46965030  0.71950887  0.28144536    -1.08300
O1169       O  0.03009906  0.71940708  0.21773033    -1.09000
C1170       C  0.99964713  0.67408422  0.16994879     1.06400
C1171       C  0.99820392  0.67241948  0.32797692     1.06400
C1172       C  0.07641979  0.67045492  0.24784206     1.09300
C1173       C  0.42179043  0.67238856  0.25209061     1.07100
H1174       H  0.04407800  0.70572715  0.29274226     0.32700
O1175       O  0.03131012  0.71875934  0.28019367    -1.29200
H1176       H  0.45587732  0.70679427  0.20624474     0.32400
O1177       O  0.46877842  0.71956433  0.21905608    -1.30900
O1178       O  0.00436132  0.79960996  0.33697156    -0.86700
O1179       O  0.99955920  0.80145038  0.16294123    -0.88200
O1180       O  0.08852459  0.75030789  0.29685511    -0.86800
O1181       O  0.41581056  0.75059620  0.30221925    -0.86800
O1182       O  0.41297628  0.75031696  0.20098610    -0.86500
O1183       O  0.08662309  0.74882258  0.19941905    -0.86300
O1184       O  0.04918210  0.83833721  0.24814258    -0.86700
O1185       O  0.45003811  0.83770591  0.25070800    -0.86200
O1186       O  0.08552638  0.80049636  0.24757406    -0.87200
O1187       O  0.41314608  0.80042875  0.24890214    -0.86400
O1188       O  0.05214806  0.74984057  0.33448380    -0.86800
O1189       O  0.04945764  0.75068999  0.16237349    -0.86500
O1190       O  0.44958987  0.75249556  0.16334858    -0.86200
O1191       O  0.45281021  0.75068766  0.33941802    -0.86600
O1192       O  0.00407275  0.83748688  0.30040999    -0.86900
O1193       O  0.99826297  0.83840233  0.20059286    -0.88200
Zr1194     Zr  0.00122430  0.75018225  0.31156449     2.83100
Zr1195     Zr  0.99938998  0.75135957  0.18756157     2.83500
Zr1196     Zr  0.06125539  0.74992452  0.24860529     2.84100
Zr1197     Zr  0.43856991  0.75058246  0.25087020     2.83400
Zr1198     Zr  0.00012104  0.81266616  0.25020435     2.84200
O1199       O  0.46892103  0.78150756  0.21952130    -1.08800
O1200       O  0.03146540  0.78120143  0.28036239    -1.08300
C1201       C  0.00532276  0.82795463  0.32850582     1.06400
C1202       C  0.99866828  0.82960103  0.17224576     1.09000
C1203       C  0.08014777  0.75010428  0.32518665     1.06600
C1204       C  0.42471112  0.75049287  0.33064330     1.06900
C1205       C  0.42164739  0.75177806  0.17264467     1.06500
C1206       C  0.07764567  0.74948611  0.17124498     1.06100
C1207       C  0.07710360  0.82902936  0.24732815     1.06500
C1208       C  0.42202409  0.82868619  0.24948878     1.06000
H1209       H  0.04318241  0.79465452  0.20537138     0.32700
O1210       O  0.03060111  0.78191997  0.21833881    -1.29900
H1211       H  0.45701377  0.79466579  0.29481801     0.32700
O1212       O  0.46947406  0.78179133  0.28178834    -1.31200
O1213       O  0.33666584  0.99574293  0.19939181    -0.86700
O1214       O  0.16286960  0.99843642  0.20045689    -0.86900
O1215       O  0.24955853  0.95074035  0.16160429    -0.88500
O1216       O  0.25077277  0.54954493  0.16362643    -0.87300
O1217       O  0.25170532  0.58669598  0.20090957    -0.86900
O1218       O  0.25065020  0.91365066  0.19879044    -0.88200
O1219       O  0.19931089  0.99997681  0.16274352    -0.86700
O1220       O  0.29907464  0.99601077  0.16275018    -0.86300
Zr1221     Zr  0.24946359  0.99963902  0.18770360     2.84300
O1222       O  0.21988169  0.53029682  0.21929137    -1.08300
O1223       O  0.28052913  0.96852687  0.21835163    -1.09000
C1224       C  0.32730932  0.99476495  0.17126513     1.06400
C1225       C  0.17131158  0.99907274  0.17201990     1.06400
C1226       C  0.25026643  0.92257154  0.17043490     1.09300
C1227       C  0.25139032  0.57782106  0.17264340     1.07100
H1228       H  0.20639792  0.95552675  0.20605134     0.32700
O1229       O  0.21914123  0.96834012  0.21873980    -1.29200
H1230       H  0.29474219  0.54291557  0.20597762     0.32400
O1231       O  0.28186271  0.53019256  0.21859505    -1.30900
O1232       O  0.16349527  0.00018634  0.29996157    -0.86700
O1233       O  0.33739210  0.99865073  0.29905482    -0.88200
O1234       O  0.20176985  0.91119998  0.25029128    -0.86800
O1235       O  0.20202673  0.58713599  0.24955050    -0.86800
O1236       O  0.30189835  0.58447451  0.25238351    -0.86500
O1237       O  0.29989815  0.91192801  0.24656907    -0.86300
O1238       O  0.25130209  0.95097923  0.33782235    -0.86700
O1239       O  0.25287669  0.54917222  0.33630809    -0.86200
O1240       O  0.25146447  0.91395029  0.30044775    -0.87200
O1241       O  0.25281311  0.58643722  0.29920228    -0.86400
O1242       O  0.16502291  0.94863586  0.25126048    -0.86800
O1243       O  0.33669055  0.94926662  0.24829347    -0.86500
O1244       O  0.33875340  0.54728109  0.25204595    -0.86200
O1245       O  0.16518813  0.55005037  0.24982632    -0.86600
O1246       O  0.20089809  0.99988510  0.33688075    -0.86900
O1247       O  0.30075237  0.00049875  0.33654259    -0.88200
Zr1248     Zr  0.18876210  0.99938252  0.25010372     2.83100
Zr1249     Zr  0.31177410  0.99891979  0.24923469     2.83500
Zr1250     Zr  0.25050337  0.93755436  0.24956133     2.84100
Zr1251     Zr  0.25129223  0.56082545  0.25010447     2.83400
Zr1252     Zr  0.25083334  0.99971039  0.31138207     2.84200
O1253       O  0.28172512  0.52977984  0.28119540    -1.08800
O1254       O  0.21981575  0.96842192  0.28090356    -1.08300
C1255       C  0.17261469  0.00016592  0.32821652     1.06400
C1256       C  0.32878510  0.99979510  0.32742086     1.09000
C1257       C  0.17373996  0.92020931  0.25091248     1.06600
C1258       C  0.17389007  0.57843035  0.24942151     1.06900
C1259       C  0.33008212  0.57554819  0.25300995     1.06500
C1260       C  0.32786635  0.92111504  0.24679355     1.06100
C1261       C  0.25160146  0.92279541  0.32887563     1.06500
C1262       C  0.25347792  0.57740918  0.32733503     1.06000
H1263       H  0.29447584  0.95529576  0.29340239     0.32700
O1264       O  0.28160769  0.96808682  0.28070762    -1.29900
H1265       H  0.20756139  0.54338687  0.29432067     0.32700
O1266       O  0.22012406  0.53045948  0.28145078    -1.31200
O1267       O  0.19932599  0.66200083  0.49953553    -0.86700
O1268       O  0.19929057  0.83567934  0.49785859    -0.86900
O1269       O  0.16213438  0.75249705  0.04946509    -0.88500
O1270       O  0.16311879  0.74833500  0.44892674    -0.87300
O1271       O  0.20031775  0.74793375  0.41211314    -0.86900
O1272       O  0.19923119  0.75094151  0.08667188    -0.88200
O1273       O  0.16224597  0.79868080  0.49706955    -0.86700
O1274       O  0.16250092  0.69931002  0.49966615    -0.86300
Zr1275     Zr  0.18779535  0.74900934  0.49880179     2.84300
O1276       O  0.21866830  0.77981493  0.46787167    -1.08300
O1277       O  0.21790015  0.71815049  0.03166719    -1.09000
C1278       C  0.17119661  0.67097024  0.49999349     1.06400
C1279       C  0.17114874  0.82690973  0.49711134     1.06400
C1280       C  0.17111484  0.75244284  0.07768979     1.09300
C1281       C  0.17217399  0.74771486  0.42077141     1.07100
H1282       H  0.20611879  0.79335913  0.04355619     0.32700
O1283       O  0.21869184  0.78022824  0.03091724    -1.29200
H1284       H  0.20570881  0.70470167  0.45501816     0.32400
O1285       O  0.21832148  0.71759937  0.46779173    -1.30900
O1286       O  0.29871514  0.83674469  0.49957928    -0.86700
O1287       O  0.29884039  0.66179284  0.49832275    -0.88200
O1288       O  0.25011621  0.79823967  0.08742530    -0.86800
O1289       O  0.24978531  0.79752502  0.41124774    -0.86800
O1290       O  0.24998494  0.69816184  0.41300527    -0.86500
O1291       O  0.24692750  0.69883909  0.08671314    -0.86300
O1292       O  0.33636239  0.75082865  0.05060563    -0.86700
O1293       O  0.33535957  0.74813546  0.44977524    -0.86200
O1294       O  0.29935729  0.74839949  0.08780211    -0.87200
O1295       O  0.29907929  0.74707785  0.41189558    -0.86400
O1296       O  0.24939724  0.83510645  0.04994324    -0.86800
O1297       O  0.24727049  0.66147018  0.04968657    -0.86500
O1298       O  0.24928320  0.66107269  0.45020579    -0.86200
O1299       O  0.24898946  0.83461271  0.44857125    -0.86600
O1300       O  0.33567124  0.79943749  0.50074105    -0.86900
O1301       O  0.33539474  0.69922117  0.49910992    -0.88200
Zr1302     Zr  0.24921888  0.81077117  0.49918995     2.83100
Zr1303     Zr  0.24912907  0.68714485  0.49920220     2.83500
Zr1304     Zr  0.24934288  0.74893909  0.06210016     2.84100
Zr1305     Zr  0.24975645  0.74840165  0.43747858     2.83400
Zr1306     Zr  0.31069670  0.74921464  0.50010601     2.84200
O1307       O  0.28050781  0.71781171  0.46877116    -1.08800
O1308       O  0.27986949  0.78000554  0.03099402    -1.08300
C1309       C  0.32687186  0.82783195  0.50032672     1.06400
C1310       C  0.32685645  0.67086785  0.49829766     1.09000
C1311       C  0.24971002  0.82635443  0.07836257     1.06600
C1312       C  0.24934311  0.82576477  0.42018599     1.06900
C1313       C  0.24961168  0.66991955  0.42200625     1.06500
C1314       C  0.24649241  0.67050737  0.07783819     1.06100
C1315       C  0.32750176  0.74979961  0.07893668     1.06500
C1316       C  0.32702164  0.74731484  0.42121684     1.06000
H1317       H  0.29263159  0.70482688  0.04453201     0.32700
O1318       O  0.28009663  0.71766280  0.03153112    -1.29900
H1319       H  0.29314459  0.79257874  0.45563509     0.32700
O1320       O  0.28037181  0.77990930  0.46837526    -1.31200
C1321       C  0.24140046  0.59375006  0.11882090    -0.12500
C1322       C  0.25097281  0.60177285  0.14855955     0.04500
C1323       C  0.25870175  0.63265555  0.15470837    -0.07800
C1324       C  0.25570527  0.65464030  0.13165214    -0.08500
C1325       C  0.24617612  0.64663804  0.10194504    -0.03100
C1326       C  0.23849065  0.61574792  0.09572158     0.03800
N1327       N  0.22651868  0.60638123  0.06659232     0.66300
H1328       H  0.23569204  0.57021357  0.11340326     0.15200
H1329       H  0.26183310  0.67807456  0.13692098     0.14900
N1330       N  0.27187385  0.64183836  0.18333524     0.74000
O1331       O  0.24250228  0.58973477  0.04916784    -0.39500
O1332       O  0.19827282  0.60866034  0.06160815    -0.39400
O1333       O  0.30024016  0.63893743  0.18709891    -0.40100
O1334       O  0.25717391  0.65951365  0.20089990    -0.40200
C1335       C  0.25556980  0.88097700  0.09350859    -0.12500
C1336       C  0.24968353  0.85058450  0.10229619     0.04500
C1337       C  0.24395777  0.84426364  0.13367245    -0.07800
C1338       C  0.24457384  0.86801441  0.15517288    -0.08500
C1339       C  0.25028953  0.89844148  0.14638289    -0.03100
C1340       C  0.25569035  0.90482315  0.11494485     0.03800
N1341       N  0.26132585  0.93523816  0.10407991     0.66300
H1342       H  0.26010311  0.88653000  0.06968634     0.15200
H1343       H  0.23990039  0.86244907  0.17896416     0.14900
N1344       N  0.23647099  0.81415662  0.14423708     0.74000
O1345       O  0.23920171  0.95136652  0.09486352    -0.39500
O1346       O  0.28804690  0.94271220  0.09656548    -0.39400
O1347       O  0.25605313  0.79891150  0.15907632    -0.40100
O1348       O  0.20888521  0.80612753  0.14517095    -0.40200
C1349       C  0.24813296  0.86789966  0.34340942    -0.12500
C1350       C  0.25187320  0.89848740  0.35276674     0.04500
C1351       C  0.25492029  0.90478317  0.38457011    -0.07800
C1352       C  0.25409146  0.88076498  0.40575623    -0.08500
C1353       C  0.24980602  0.85019502  0.39638381    -0.03100
C1354       C  0.24649156  0.84402108  0.36462586     0.03800
N1355       N  0.23921958  0.81416757  0.35331103     0.66300
H1356       H  0.24548936  0.86226387  0.31930964     0.15200
H1357       H  0.25668649  0.88638702  0.42987849     0.14900
N1358       N  0.25871800  0.93527220  0.39610414     0.74000
O1359       O  0.21157151  0.80654545  0.35190035    -0.39500
O1360       O  0.25823373  0.80030676  0.33656254    -0.39400
O1361       O  0.23617717  0.94887161  0.40793287    -0.40100
O1362       O  0.28522378  0.94498494  0.40166796    -0.40200
C1363       C  0.24246806  0.59366584  0.38045849    -0.12500
C1364       C  0.25390087  0.60116469  0.35139009     0.04500
C1365       C  0.26375320  0.63146844  0.34571846    -0.07800
C1366       C  0.26147799  0.65345700  0.36889723    -0.08500
C1367       C  0.25022920  0.64594045  0.39803358    -0.03100
C1368       C  0.24033233  0.61564938  0.40359702     0.03800
N1369       N  0.22508273  0.60746193  0.43130717     0.66300
H1370       H  0.23389830  0.57081585  0.38504743     0.15200
H1371       H  0.26864435  0.67661608  0.36404360     0.14900
N1372       N  0.27681350  0.64024715  0.31697149     0.74000
O1373       O  0.19637956  0.60870396  0.43183456    -0.39500
O1374       O  0.23888746  0.59139677  0.45104990    -0.39400
O1375       O  0.26119121  0.65583776  0.29825080    -0.40100
O1376       O  0.30530527  0.63862686  0.31350906    -0.40200
C1377       C  0.40661330  0.61742972  0.25920752    -0.12500
C1378       C  0.39788147  0.64799569  0.25329335     0.04500
C1379       C  0.36651964  0.65427635  0.24874996    -0.07800
C1380       C  0.34526891  0.63044385  0.24925186    -0.08500
C1381       C  0.35400418  0.59984193  0.25429257    -0.03100
C1382       C  0.38523054  0.59354935  0.25995195     0.03800
N1383       N  0.39577577  0.56332328  0.26721918     0.66300
H1384       H  0.43030366  0.61183372  0.26353379     0.15200
H1385       H  0.32156203  0.63620503  0.24533093     0.14900
N1386       N  0.35551496  0.68458570  0.24294815     0.74000
O1387       O  0.40748583  0.54699658  0.24635614    -0.39500
O1388       O  0.40009081  0.55613146  0.29497997    -0.39400
O1389       O  0.34939989  0.69224879  0.21568958    -0.40100
O1390       O  0.34408820  0.69978756  0.26479479    -0.40200
C1391       C  0.37600739  0.90024953  0.26734693    -0.12500
C1392       C  0.35200855  0.89769147  0.24628045     0.04500
C1393       C  0.35149399  0.87294386  0.22544007    -0.07800
C1394       C  0.37422461  0.85027354  0.22707723    -0.08500
C1395       C  0.39813933  0.85262836  0.24856473    -0.03100
C1396       C  0.39905940  0.87814936  0.26855428     0.03800
N1397       N  0.42250655  0.88136555  0.29114278     0.66300
H1398       H  0.37658850  0.91930167  0.28340586     0.15200
H1399       H  0.37377164  0.83132069  0.21091242     0.14900
N1400       N  0.32928403  0.87180394  0.20134307     0.74000
O1401       O  0.44394223  0.89998850  0.28637156    -0.39500
O1402       O  0.41768529  0.87208379  0.31814890    -0.39400
O1403       O  0.33043348  0.89095841  0.17963406    -0.40100
O1404       O  0.30634867  0.85461672  0.20389039    -0.40200
C1405       C  0.13150461  0.65565316  0.24851883    -0.12500
C1406       C  0.10085447  0.64635050  0.24777075     0.04500
C1407       C  0.09471307  0.61440497  0.24731438    -0.07800
C1408       C  0.11874273  0.59314699  0.24772561    -0.08500
C1409       C  0.14939727  0.60247214  0.24875681    -0.03100
C1410       C  0.15550106  0.63438929  0.24907205     0.03800
N1411       N  0.18584673  0.64601633  0.25002550     0.66300
H1412       H  0.13721403  0.67983224  0.24887728     0.15200
H1413       H  0.11305341  0.56896479  0.24733619     0.14900
N1414       N  0.06433320  0.60274645  0.24656141     0.74000
O1415       O  0.19771620  0.65567751  0.22551953    -0.39500
O1416       O  0.19688998  0.65433312  0.27549327    -0.39400
O1417       O  0.05377725  0.59270515  0.22151322    -0.40100
O1418       O  0.05191986  0.59476183  0.27141195    -0.40200
C1419       C  0.13157008  0.84361885  0.25358866    -0.12500
C1420       C  0.10159415  0.85264794  0.24670721     0.04500
C1421       C  0.09592996  0.88401360  0.24032416    -0.07800
C1422       C  0.11963757  0.90533216  0.24233401    -0.08500
C1423       C  0.14943249  0.89641293  0.25026551    -0.03100
C1424       C  0.15522270  0.86493782  0.25590970     0.03800
N1425       N  0.18455992  0.85411169  0.26527977     0.66300
H1426       H  0.13681305  0.81972197  0.25773208     0.15200
H1427       H  0.11461163  0.92907776  0.23687717     0.14900
N1428       N  0.06682406  0.89462334  0.22999653     0.74000
O1429       O  0.19121841  0.85420370  0.29349652    -0.39500
O1430       O  0.19991185  0.83760478  0.24712818    -0.39400
O1431       O  0.05105518  0.91133022  0.24753193    -0.40100
O1432       O  0.06126803  0.89492591  0.20153994    -0.40200
C1433       C  0.37503834  0.77230521  0.10175852    -0.12500
C1434       C  0.35159289  0.75029914  0.10307689     0.04500
C1435       C  0.35157085  0.72913464  0.12763508    -0.07800
C1436       C  0.37447693  0.73017457  0.15004357    -0.08500
C1437       C  0.39756379  0.75216057  0.14887702    -0.03100
C1438       C  0.39768649  0.77361410  0.12468369     0.03800
N1439       N  0.41980858  0.79766320  0.12409165     0.66300
H1440       H  0.37524787  0.78906095  0.08337569     0.15200
H1441       H  0.37470423  0.71313120  0.16807487     0.14900
N1442       N  0.32911252  0.70563166  0.12967852     0.74000
O1443       O  0.44282025  0.79521505  0.10693015    -0.39500
O1444       O  0.41927401  0.81822614  0.14455678    -0.39400
O1445       O  0.33438771  0.67988746  0.11742881    -0.40100
O1446       O  0.30911811  0.70759985  0.15036219    -0.40200
C1447       C  0.09640718  0.76590206  0.11998933    -0.12500
C1448       C  0.10166022  0.74974788  0.14737206     0.04500
C1449       C  0.13033717  0.73548904  0.15193205    -0.07800
C1450       C  0.15263540  0.73719744  0.12914438    -0.08500
C1451       C  0.14731616  0.75312349  0.10170062    -0.03100
C1452       C  0.11897822  0.76806209  0.09741432     0.03800
N1453       N  0.11323299  0.78684336  0.07112199     0.66300
H1454       H  0.07496321  0.77779910  0.11644812     0.15200
H1455       H  0.17411759  0.72539883  0.13278661     0.14900
N1456       N  0.13705544  0.71837397  0.17912206     0.74000
O1457       O  0.09518630  0.77738566  0.05061743    -0.39500
O1458       O  0.11975549  0.81502413  0.07225082    -0.39400
O1459       O  0.13436208  0.68954774  0.17863913    -0.40100
O1460       O  0.15271918  0.73072172  0.20009419    -0.40200
C1461       C  0.15670060  0.75511869  0.36636343    -0.12500
C1462       C  0.14857421  0.74702445  0.39639799     0.04500
C1463       C  0.11802274  0.73892975  0.40239860    -0.07800
C1464       C  0.09635478  0.74035508  0.37894074    -0.08500
C1465       C  0.10427799  0.74941965  0.34907252    -0.03100
C1466       C  0.13506934  0.75670324  0.34287652     0.03800
N1467       N  0.14478089  0.76724943  0.31343792     0.66300
H1468       H  0.18004823  0.76063851  0.36096690     0.15200
H1469       H  0.07318559  0.73366778  0.38420157     0.14900
N1470       N  0.10876652  0.72752088  0.43165594     0.74000
O1471       O  0.14656494  0.79577012  0.30892280    -0.39500
O1472       O  0.15941941  0.74922761  0.29614258    -0.39400
O1473       O  0.09262282  0.74419011  0.44890772    -0.40100
O1474       O  0.11065451  0.69910836  0.43694050    -0.40200
C1475       C  0.37075516  0.74177165  0.34534965    -0.12500
C1476       C  0.40042163  0.74955435  0.35455949     0.04500
C1477       C  0.40556143  0.75603594  0.38606680    -0.07800
C1478       C  0.38143064  0.75477408  0.40698973    -0.08500
C1479       C  0.35169889  0.74736320  0.39767702    -0.03100
C1480       C  0.34664175  0.74065932  0.36624374     0.03800
N1481       N  0.31757548  0.73145578  0.35488936     0.66300
H1482       H  0.36596515  0.73619421  0.32154791     0.15200
H1483       H  0.38617180  0.76029465  0.43081357     0.14900
N1484       N  0.43452144  0.76559190  0.39745309     0.74000
O1485       O  0.30014698  0.75157293  0.34361452    -0.39500
O1486       O  0.31411820  0.70385739  0.34689181    -0.39400
O1487       O  0.43749013  0.79320551  0.40554555    -0.40100
O1488       O  0.45166997  0.74580918  0.40962270    -0.40200
C1489       C  0.37916410  0.84516043  0.51550208    -0.12500
C1490       C  0.35048435  0.85215847  0.99876045     0.04500
C1491       C  0.34484976  0.88297935  0.98996993    -0.07800
C1492       C  0.36843293  0.90462486  0.99087626    -0.08500
C1493       C  0.39808054  0.89663062  0.00029172    -0.03100
C1494       C  0.40278032  0.86686419  0.51672672     0.03800
N1495       N  0.42983254  0.85942112  0.53352418     0.66300
H1496       H  0.38263388  0.82310067  0.52646905     0.15200
H1497       H  0.36343455  0.92787220  0.98356740     0.14900
N1498       N  0.31567070  0.89271473  0.97900874     0.74000
O1499       O  0.43010143  0.86272954  0.56234549    -0.39500
O1500       O  0.45016257  0.84320980  0.52094810    -0.39400
O1501       O  0.29892877  0.90892585  0.99614781    -0.40100
O1502       O  0.31881408  0.88653217  0.44314019    -0.40200
C1503       C  0.36783261  0.59237260  0.99941809    -0.12500
C1504       C  0.39829099  0.60181779  0.00192527     0.04500
C1505       C  0.40541718  0.63508536  0.50566822    -0.07800
C1506       C  0.38126224  0.65610604  0.50571525    -0.08500
C1507       C  0.34974238  0.64531353  0.00210755    -0.03100
C1508       C  0.34378156  0.61345158  0.99978333     0.03800
N1509       N  0.31361631  0.60163965  0.99747970     0.66300
H1510       H  0.36230295  0.56824325  0.99716334     0.15200
H1511       H  0.38604304  0.67958554  0.51237924     0.14900
N1512       N  0.43499568  0.64585505  0.51417446     0.74000
O1513       O  0.30477845  0.59136190  0.97188293    -0.39500
O1514       O  0.30062380  0.59251780  0.02161425    -0.39400
O1515       O  0.45084096  0.65980329  0.49449244    -0.40100
O1516       O  0.44157128  0.64860797  0.54229021    -0.40200
C1517       C  0.15408667  0.88005117  0.01239478    -0.12500
C1518       C  0.14737813  0.85144068  0.99912408     0.04500
C1519       C  0.11758515  0.84655052  0.48598635    -0.07800
C1520       C  0.09582932  0.86998509  0.48810411    -0.08500
C1521       C  0.10237864  0.89811921  0.00251666    -0.03100
C1522       C  0.13201823  0.90324174  0.01431653     0.03800
N1523       N  0.13991151  0.93132396  0.02935995     0.66300
H1524       H  0.17648580  0.88433898  0.02198706     0.15200
H1525       H  0.07328856  0.86585405  0.47877979     0.14900
N1526       N  0.10901347  0.81844944  0.47142753     0.74000
O1527       O  0.13800021  0.93305030  0.05824639    -0.39500
O1528       O  0.15728194  0.95052760  0.51378600    -0.39400
O1529       O  0.09252679  0.79970866  0.98736962    -0.40100
O1530       O  0.11354755  0.81519853  0.44297572    -0.40200
C1531       C  0.09515913  0.62985178  0.01738793    -0.12500
C1532       C  0.10098152  0.60158612  0.00301227     0.04500
C1533       C  0.13242871  0.59353267  0.49065149    -0.07800
C1534       C  0.15245185  0.61883265  0.99213460    -0.08500
C1535       C  0.14643742  0.64760491  0.00543201    -0.03100
C1536       C  0.11745991  0.65279066  0.01868760     0.03800
N1537       N  0.11074167  0.68044753  0.03504578     0.66300
H1538       H  0.07328659  0.63404616  0.02814857     0.15200
H1539       H  0.17457980  0.61413035  0.98252052     0.14900
N1540       N  0.14107158  0.56368874  0.47991675     0.74000
O1541       O  0.09090523  0.69983546  0.50391836    -0.39500
O1542       O  0.11349502  0.68083610  0.06392063    -0.39400
O1543       O  0.13261676  0.55463210  0.45368489    -0.40100
O1544       O  0.15293210  0.54810200  0.98527744    -0.40200
C1545       C  0.37294723  0.51732980  0.40136716    -0.12500
C1546       C  0.40032483  0.50145392  0.39619713     0.04500
C1547       C  0.40326729  0.98201450  0.36831791    -0.07800
C1548       C  0.38013129  0.98316366  0.34603952    -0.08500
C1549       C  0.35346524  0.50140345  0.35143746    -0.03100
C1550       C  0.34975167  0.51767326  0.37928431     0.03800
N1551       N  0.32332212  0.53607117  0.38486164     0.66300
H1552       H  0.36970241  0.53008899  0.42252758     0.15200
H1553       H  0.38292698  0.97013269  0.32498816     0.14900
N1554       N  0.42930344  0.96286088  0.36317047     0.74000
O1555       O  0.30375377  0.52711582  0.40403432    -0.39500
O1556       O  0.32308201  0.56370763  0.37620802    -0.39400
O1557       O  0.43273380  0.93857018  0.37859293    -0.40100
O1558       O  0.45068023  0.97217484  0.34626757    -0.40200
C1559       C  0.09804445  0.01202429  0.37189841    -0.12500
C1560       C  0.10350026  0.49428999  0.39982158     0.04500
C1561       C  0.13387725  0.48487169  0.40561711    -0.07800
C1562       C  0.15591244  0.48676762  0.38230305    -0.08500
C1563       C  0.14847270  0.49721347  0.35262685    -0.03100
C1564       C  0.11994033  0.01373740  0.34858824     0.03800
N1565       N  0.11273362  0.03092593  0.32157819     0.66300
H1566       H  0.07628265  0.02331373  0.36835527     0.15200
H1567       H  0.17891921  0.47920995  0.38737534     0.14900
N1568       N  0.14248310  0.47151764  0.43433423     0.74000
O1569       O  0.09698269  0.01853601  0.30070465    -0.39500
O1570       O  0.10768217  0.54463567  0.31166114    -0.39400
O1571       O  0.13865757  0.93720123  0.43048487    -0.40100
O1572       O  0.15869220  0.48674121  0.45281719    -0.40200
C1573       C  0.11976571  0.98199960  0.15451648    -0.12500
C1574       C  0.14754355  0.50072596  0.14910366     0.04500
C1575       C  0.15171296  0.51232970  0.11915196    -0.07800
C1576       C  0.12777479  0.51154625  0.09801359    -0.08500
C1577       C  0.09916915  0.49957257  0.10582344    -0.03100
C1578       C  0.09592837  0.98081675  0.13294826     0.03800
N1579       N  0.06975015  0.96257988  0.13969985     0.66300
H1580       H  0.11727301  0.96973398  0.17601846     0.15200
H1581       H  0.13162653  0.52098024  0.07531753     0.14900
N1582       N  0.17934740  0.52693455  0.11021884     0.74000
O1583       O  0.04911312  0.97352012  0.15666687    -0.39500
O1584       O  0.07093059  0.93394363  0.13538134    -0.39400
O1585       O  0.19896243  0.51177663  0.09537265    -0.40100
O1586       O  0.18003921  0.55586045  0.10933038    -0.40200
C1587       C  0.34458340  0.50972912  0.11863249    -0.12500
C1588       C  0.35187551  0.49803206  0.14780861     0.04500
C1589       C  0.38040268  0.98182172  0.15151147    -0.07800
C1590       C  0.40203629  0.98343800  0.12796047    -0.08500
C1591       C  0.39625441  0.50014594  0.10067007    -0.03100
C1592       C  0.36635716  0.51112236  0.09525548     0.03800
N1593       N  0.35798513  0.52521933  0.06681212     0.66300
H1594       H  0.32195604  0.51865247  0.11403435     0.15200
H1595       H  0.42476750  0.97471624  0.13241362     0.14900
N1596       N  0.38888269  0.96733836  0.17971835     0.74000
O1597       O  0.34225206  0.99985759  0.04540685    -0.39500
O1598       O  0.35933063  0.55405272  0.06447297    -0.39400
O1599       O  0.38791553  0.93844683  0.18153303    -0.40100
O1600       O  0.40491657  0.49129949  0.20120840    -0.40200
C1601       C  0.98557616  0.62821267  0.40251733    -0.12500
C1602       C  0.00029589  0.60035963  0.39609681     0.04500
C1603       C  0.51364111  0.59563624  0.36668197    -0.07800
C1604       C  0.51176736  0.61922887  0.34494357    -0.08500
C1605       C  0.99769816  0.64780979  0.35157123    -0.03100
C1606       C  0.98432345  0.65181376  0.38082025     0.03800
N1607       N  0.96988452  0.67984313  0.38941389     0.66300
H1608       H  0.97486713  0.63184679  0.42466126     0.15200
H1609       H  0.52106347  0.61519834  0.32224614     0.14900
N1610       N  0.52938139  0.56814937  0.35842394     0.74000
O1611       O  0.94140714  0.68241313  0.38618105    -0.39500
O1612       O  0.98349101  0.69710345  0.40821848    -0.39400
O1613       O  0.51720968  0.54978260  0.33963456    -0.40100
O1614       O  0.55774331  0.56674753  0.36293900    -0.40200
C1615       C  0.01938375  0.90183247  0.37260218    -0.12500
C1616       C  0.00432961  0.89565928  0.40023267     0.04500
C1617       C  0.48652106  0.86854450  0.40320697    -0.07800
C1618       C  0.48804798  0.84640840  0.38001365    -0.08500
C1619       C  0.00690445  0.85108845  0.35332574    -0.03100
C1620       C  0.02101431  0.87983027  0.34936219     0.03800
N1621       N  0.03798751  0.88687790  0.32241290     0.66300
H1622       H  0.03042643  0.92378342  0.36911937     0.15200
H1623       H  0.47565617  0.82528601  0.38266044     0.14900
N1624       N  0.46793904  0.86298005  0.42959715     0.74000
O1625       O  0.02782067  0.90721946  0.30452839    -0.39500
O1626       O  0.06595887  0.88012573  0.32158441    -0.39400
O1627       O  0.44358088  0.87798080  0.43336565    -0.40100
O1628       O  0.47771973  0.84595966  0.45090017    -0.40200
C1629       C  0.48156588  0.90212821  0.12786431    -0.12500
C1630       C  0.00000076  0.89830296  0.10188724     0.04500
C1631       C  0.01823208  0.87177846  0.09925225    -0.07800
C1632       C  0.01702106  0.84935122  0.12216842    -0.08500
C1633       C  0.99874449  0.85355143  0.14836519    -0.03100
C1634       C  0.48083524  0.88015329  0.15113467     0.03800
N1635       N  0.46213412  0.88586095  0.17738182     0.66300
H1636       H  0.46802221  0.92283025  0.13039186     0.15200
H1637       H  0.03123222  0.82907152  0.12001454     0.14900
N1638       N  0.03956168  0.86844096  0.07462006     0.74000
O1639       O  0.43437376  0.87847610  0.17644286    -0.39500
O1640       O  0.47092331  0.90502871  0.19725915    -0.39400
O1641       O  0.06302800  0.88511317  0.07387160    -0.40100
O1642       O  0.03324721  0.85154050  0.05192401    -0.40200
C1643       C  0.49211868  0.63042621  0.09516735    -0.12500
C1644       C  0.00223772  0.60205011  0.10205620     0.04500
C1645       C  0.01443401  0.59757008  0.13177810    -0.07800
C1646       C  0.01316509  0.62132714  0.15332908    -0.08500
C1647       C  0.00042783  0.64997644  0.14594375    -0.03100
C1648       C  0.49075816  0.65406477  0.11681288     0.03800
N1649       N  0.47688736  0.68244799  0.10801384     0.66300
H1650       H  0.48302639  0.63462752  0.07245089     0.15200
H1651       H  0.02274441  0.61741255  0.17592459     0.14900
N1652       N  0.02921422  0.56956172  0.14025163     0.74000
O1653       O  0.49111467  0.70046910  0.09051801    -0.39500
O1654       O  0.44860250  0.68606379  0.11175043    -0.39400
O1655       O  0.05774067  0.56733504  0.13736117    -0.40100
O1656       O  0.01542307  0.55087240  0.15738213    -0.40200
O1657       O  0.99669055  0.55015217  0.58718135    -0.86700
O1658       O  0.00033580  0.54743203  0.91205750    -0.86900
O1659       O  0.04988361  0.58590704  0.49911641    -0.88500
O1660       O  0.45243861  0.58865470  0.49863045    -0.87300
O1661       O  0.41528125  0.55181562  0.49796716    -0.86900
O1662       O  0.08632063  0.54823092  0.50109036    -0.88200
O1663       O  0.99883493  0.58469995  0.94913627    -0.86700
O1664       O  0.99988645  0.58692356  0.54959857    -0.86300
Zr1665     Zr  0.99993302  0.56163627  0.49945178     2.84300
O1666       O  0.46952262  0.53024074  0.96909718    -1.08300
O1667       O  0.02972028  0.53090587  0.53183976    -1.09000
C1668       C  0.99804689  0.57824481  0.57795250     1.06400
C1669       C  0.99914574  0.57567816  0.92073742     1.06400
C1670       C  0.07786483  0.57655963  0.49968066     1.09300
C1671       C  0.42429775  0.58007374  0.49813192     1.07100
H1672       H  0.04466749  0.54301232  0.95753213     0.32700
O1673       O  0.03187785  0.53038458  0.97005998    -1.29200
H1674       H  0.45580226  0.54483992  0.54249269     0.32400
O1675       O  0.46845118  0.53165772  0.53030648    -1.30900
O1676       O  0.00220828  0.94938997  0.91265464    -0.86700
O1677       O  0.99965142  0.95098405  0.58747433    -0.88200
O1678       O  0.08893073  0.49782863  0.95379923    -0.86800
O1679       O  0.41403582  0.49973056  0.94932310    -0.86800
O1680       O  0.41048492  0.50310142  0.54745457    -0.86500
O1681       O  0.08338095  0.49987792  0.55303735    -0.86300
O1682       O  0.05089362  0.91370854  0.50134136    -0.86700
O1683       O  0.45135811  0.91093133  0.50281028    -0.86200
O1684       O  0.08758530  0.95103630  0.50229077    -0.87200
O1685       O  0.41436335  0.94811512  0.50046054    -0.86400
O1686       O  0.05264475  0.49848886  0.91578268    -0.86800
O1687       O  0.04580874  0.49973964  0.58957580    -0.86500
O1688       O  0.44679691  0.50205814  0.58531037    -0.86200
O1689       O  0.45159608  0.49900845  0.91265494    -0.86600
O1690       O  0.00174277  0.91265817  0.95033415    -0.86900
O1691       O  0.00083612  0.91333207  0.55066956    -0.88200
Zr1692     Zr  0.00166357  0.49890971  0.93898305     2.83900
Zr1693     Zr  0.99753353  0.50042627  0.56187555     2.83500
Zr1694     Zr  0.06067882  0.49904639  0.50173386     2.84100
Zr1695     Zr  0.43800132  0.50062565  0.49900690     2.83400
Zr1696     Zr  0.00040609  0.93765751  0.50091001     2.84200
O1697       O  0.46862258  0.96832341  0.53073255    -1.08800
O1698       O  0.03136244  0.96809957  0.96935908    -1.08300
C1699       C  0.00211950  0.92133311  0.92204537     1.06400
C1700       C  0.00080936  0.92268598  0.57874951     1.09000
C1701       C  0.08064792  0.49800118  0.92530516     1.06600
C1702       C  0.42338034  0.49937786  0.92117514     1.06900
C1703       C  0.41880411  0.50307144  0.57592001     1.06500
C1704       C  0.07401561  0.49980870  0.58121898     1.06100
C1705       C  0.07896715  0.92274035  0.50190235     1.06500
C1706       C  0.42321992  0.91980152  0.50226996     1.06000
H1707       H  0.04294002  0.95699937  0.54495810     0.32700
O1708       O  0.03045423  0.96916816  0.53206419    -1.29900
H1709       H  0.45662494  0.95541872  0.95512368     0.32700
O1710       O  0.46914805  0.96832472  0.96802336    -1.31200
O1711       O  0.00147320  0.70144143  0.66161186    -0.86700
O1712       O  0.99943569  0.70047000  0.83728033    -0.86900
O1713       O  0.04778060  0.66227570  0.74838740    -0.88500
O1714       O  0.44792363  0.66487943  0.74899837    -0.87300
O1715       O  0.41124806  0.70228913  0.74964426    -0.86900
O1716       O  0.08473907  0.69939218  0.74905229    -0.88200
O1717       O  0.99890759  0.66361730  0.79969906    -0.86700
O1718       O  0.99988868  0.66425171  0.69894649    -0.86300
Zr1719     Zr  0.99890873  0.68875479  0.74937624     2.84300
O1720       O  0.46822171  0.71960751  0.78108059    -1.08300
O1721       O  0.02986002  0.71952703  0.71850993    -1.09000
C1722       C  0.00116125  0.67321917  0.67066446     1.06400
C1723       C  0.99923188  0.67224497  0.82820230     1.06400
C1724       C  0.07583558  0.67109134  0.74856540     1.09300
C1725       C  0.41980111  0.67396797  0.74916254     1.07100
H1726       H  0.04295951  0.70611644  0.79315359     0.32700
O1727       O  0.03026459  0.71911653  0.78050839    -1.29200
H1728       H  0.45507554  0.70728670  0.70560020     0.32400
O1729       O  0.46790498  0.71993859  0.71858104    -1.30900
O1730       O  0.00150640  0.79978238  0.83723001    -0.86700
O1731       O  0.00023218  0.80142242  0.66323268    -0.88200
O1732       O  0.08700143  0.75030184  0.79840707    -0.86800
O1733       O  0.41374472  0.75008971  0.80122039    -0.86800
O1734       O  0.41241400  0.75137532  0.70029662    -0.86500
O1735       O  0.08696764  0.74748331  0.70020266    -0.86300
O1736       O  0.04836685  0.83851039  0.74907922    -0.86700
O1737       O  0.44971710  0.83811996  0.75037749    -0.86200
O1738       O  0.08497947  0.80096657  0.74845262    -0.87200
O1739       O  0.41263420  0.80115046  0.74946867    -0.86400
O1740       O  0.05033062  0.74981998  0.83574721    -0.86800
O1741       O  0.04989792  0.74910334  0.66304628    -0.86500
O1742       O  0.44909568  0.75225247  0.66267146    -0.86200
O1743       O  0.45096818  0.75065723  0.83831188    -0.86600
O1744       O  0.00240218  0.83709807  0.80011683    -0.86900
O1745       O  0.99884406  0.83818342  0.70097423    -0.88200
Zr1746     Zr  0.99967926  0.75014093  0.81180391     2.83100
Zr1747     Zr  0.99971746  0.75103860  0.68748879     2.83500
Zr1748     Zr  0.06089221  0.75017847  0.74937660     2.84100
Zr1749     Zr  0.43762512  0.75113183  0.75028511     2.83400
Zr1750     Zr  0.99966558  0.81233668  0.75020800     2.84200
O1751       O  0.46812865  0.78171354  0.71874715    -1.08800
O1752       O  0.03054442  0.78110551  0.78096949    -1.08300
C1753       C  0.00273511  0.82801031  0.82830498     1.06400
C1754       C  0.99942954  0.82958481  0.67262708     1.09000
C1755       C  0.07845690  0.75001513  0.82670729     1.06600
C1756       C  0.42281611  0.75020240  0.82958405     1.06900
C1757       C  0.42111770  0.75213217  0.67195280     1.06500
C1758       C  0.07803627  0.74755662  0.67193194     1.06100
C1759       C  0.07634121  0.82945778  0.74829267     1.06500
C1760       C  0.42162639  0.82936589  0.74982419     1.06000
H1761       H  0.04334538  0.79452274  0.70570204     0.32700
O1762       O  0.03058579  0.78182118  0.71852518    -1.29900
H1763       H  0.45602192  0.79469928  0.79450456     0.32700
O1764       O  0.46849375  0.78181378  0.78150504    -1.31200
O1765       O  0.33733402  0.99693464  0.70051682    -0.86700
O1766       O  0.16425635  0.00166745  0.69841652    -0.86900
O1767       O  0.25167371  0.95079184  0.66108130    -0.88500
O1768       O  0.24888841  0.55032212  0.66318424    -0.87300
O1769       O  0.24908619  0.58784163  0.70007778    -0.86900
O1770       O  0.25034073  0.91374076  0.69850533    -0.88200
O1771       O  0.20101072  0.00210781  0.66101151    -0.86700
O1772       O  0.30040255  0.99754002  0.66326421    -0.86300
Zr1773     Zr  0.25028621  0.00019839  0.68729491     2.84300
O1774       O  0.21787169  0.53177645  0.71945754    -1.08300
O1775       O  0.28051725  0.96893882  0.71848851    -1.09000
C1776       C  0.32851113  0.99636954  0.67220461     1.06400
C1777       C  0.17295517  0.00232044  0.67005649     1.06400
C1778       C  0.25141080  0.92258192  0.67015172     1.09300
C1779       C  0.24919511  0.57862211  0.67190084     1.07100
H1780       H  0.20620415  0.95664121  0.70471081     0.32700
O1781       O  0.21882435  0.96928420  0.71771016    -1.29200
H1782       H  0.29270747  0.54418212  0.70556738     0.32400
O1783       O  0.28008777  0.53151428  0.71850068    -1.30900
O1784       O  0.16240974  0.00188122  0.79871948    -0.86700
O1785       O  0.33600023  0.99927170  0.79994080    -0.88200
O1786       O  0.20047714  0.91249321  0.74895734    -0.86800
O1787       O  0.19996461  0.58825950  0.75122250    -0.86800
O1788       O  0.29986110  0.58658620  0.74952612    -0.86500
O1789       O  0.29877474  0.91250918  0.74776959    -0.86300
O1790       O  0.24806281  0.95090596  0.83703936    -0.86700
O1791       O  0.25251600  0.55168938  0.83520032    -0.86200
O1792       O  0.24844599  0.91391651  0.79964208    -0.87200
O1793       O  0.25135379  0.58900645  0.79824668    -0.86400
O1794       O  0.16379508  0.94998338  0.74927773    -0.86800
O1795       O  0.33573858  0.94963737  0.74899512    -0.86500
O1796       O  0.33673363  0.54939723  0.74951742    -0.86200
O1797       O  0.16323500  0.55088980  0.75167296    -0.86600
O1798       O  0.19958728  0.00141899  0.83583519    -0.86900
O1799       O  0.29904877  0.00040037  0.83710174    -0.88200
Zr1800     Zr  0.18825143  0.00056411  0.74892116     2.83100
Zr1801     Zr  0.31129466  0.99946422  0.74981393     2.83500
Zr1802     Zr  0.24946958  0.93826218  0.74907036     2.84100
Zr1803     Zr  0.24959806  0.56251797  0.74967977     2.83400
Zr1804     Zr  0.24955336  0.00022212  0.81116349     2.84200
O1805       O  0.28104617  0.53204107  0.78070658    -1.08800
O1806       O  0.21868484  0.96934738  0.78007097    -1.08300
C1807       C  0.17139746  0.00196834  0.82706333     1.06400
C1808       C  0.32716078  0.99997411  0.82822871     1.09000
C1809       C  0.17246175  0.92150811  0.74922418     1.06600
C1810       C  0.17191113  0.57923077  0.75170787     1.06900
C1811       C  0.32801866  0.57765578  0.74949182     1.06500
C1812       C  0.32679747  0.92150006  0.74792366     1.06100
C1813       C  0.24796578  0.92266273  0.82809327     1.06500
C1814       C  0.25237572  0.57994621  0.82634052     1.06000
H1815       H  0.29294434  0.95561061  0.79358960     0.32700
O1816       O  0.28042842  0.96856808  0.78069521    -1.29900
H1817       H  0.20697832  0.54498681  0.79461665     0.32700
O1818       O  0.21934375  0.53201405  0.78160761    -1.31200
O1819       O  0.19843610  0.66261412  0.00266380    -0.86700
O1820       O  0.19941837  0.83612569  0.99907949    -0.86900
O1821       O  0.16179403  0.74969594  0.54814477    -0.88500
O1822       O  0.16213434  0.74813423  0.95076645    -0.87300
O1823       O  0.19910010  0.74763730  0.91371488    -0.86900
O1824       O  0.19843603  0.74856723  0.58576542    -0.88200
O1825       O  0.16247794  0.79904539  0.99862563    -0.86700
O1826       O  0.16168795  0.70004133  0.00380114    -0.86300
Zr1827     Zr  0.18765757  0.74930237  0.00019997     2.84300
O1828       O  0.21818371  0.77982111  0.96860180    -1.08300
O1829       O  0.21805422  0.71787115  0.53022455    -1.09000
C1830       C  0.17038251  0.67170236  0.00417174     1.06400
C1831       C  0.17129853  0.82727339  0.99866933     1.06400
C1832       C  0.17037672  0.74918467  0.57653071     1.09300
C1833       C  0.17095105  0.74751767  0.92253554     1.07100
H1834       H  0.20531466  0.79291850  0.54269585     0.32700
O1835       O  0.21820715  0.78004057  0.53011701    -1.29200
H1836       H  0.20493144  0.70466334  0.95660602     0.32400
O1837       O  0.21776685  0.71759632  0.96909811    -1.30900
O1838       O  0.29814318  0.83697621  0.99879054    -0.86700
O1839       O  0.29732976  0.66056508  0.00106099    -0.88200
O1840       O  0.24756363  0.79861719  0.58706848    -0.86800
O1841       O  0.24852643  0.79694623  0.91123661    -0.86800
O1842       O  0.24890745  0.69820472  0.91444731    -0.86500
O1843       O  0.24677188  0.69801886  0.58478977    -0.86300
O1844       O  0.33552010  0.75003848  0.55050398    -0.86700
O1845       O  0.33585652  0.74718017  0.95043231    -0.86200
O1846       O  0.29839050  0.74798201  0.58760819    -0.87200
O1847       O  0.29902889  0.74602398  0.91291466    -0.86400
O1848       O  0.24893773  0.83559729  0.54950229    -0.86800
O1849       O  0.24785540  0.66072413  0.54766727    -0.86500
O1850       O  0.24846279  0.66097696  0.95148157    -0.86200
O1851       O  0.24799630  0.83422118  0.94832182    -0.86600
O1852       O  0.33501562  0.79961696  0.99958581    -0.86900
O1853       O  0.33417782  0.69768932  0.00113689    -0.88200
Zr1854     Zr  0.24915074  0.81073660  0.99937208     2.83100
Zr1855     Zr  0.24848291  0.68711849  0.00062052     2.83500
Zr1856     Zr  0.24867325  0.74879407  0.56146541     2.84100
Zr1857     Zr  0.24918079  0.74822966  0.93834675     2.83400
Zr1858     Zr  0.31082071  0.74878370  0.00048782     2.84200
O1859       O  0.27985097  0.71753324  0.96972812    -1.08800
O1860       O  0.27960744  0.78002326  0.53091490    -1.08300
C1861       C  0.32624841  0.82807574  0.99894156     1.06400
C1862       C  0.32539972  0.66931020  0.00133616     1.09000
C1863       C  0.24803394  0.82681316  0.57786919     1.06600
C1864       C  0.24794080  0.82526446  0.91992148     1.06900
C1865       C  0.24866745  0.66998496  0.92329771     1.06500
C1866       C  0.24681770  0.66970454  0.57579643     1.06100
C1867       C  0.32656162  0.74904130  0.57879354     1.06500
C1868       C  0.32714052  0.74615688  0.92201818     1.06000
H1869       H  0.29255467  0.70489625  0.54362702     0.32700
O1870       O  0.27993662  0.71781261  0.53078216    -1.29900
H1871       H  0.29285026  0.79206102  0.95575707     0.32700
O1872       O  0.28022714  0.77952983  0.96879745    -1.31200
C1873       C  0.23985742  0.59363761  0.61774886    -0.12500
C1874       C  0.24927779  0.60206019  0.64744249     0.04500
C1875       C  0.25827944  0.63263907  0.65296814    -0.07800
C1876       C  0.25616708  0.65419774  0.62949223    -0.08500
C1877       C  0.24659669  0.64591148  0.59987669    -0.03100
C1878       C  0.23846835  0.61505584  0.59400729     0.03800
N1879       N  0.22850181  0.60493427  0.56436259     0.66300
H1880       H  0.23352213  0.57016918  0.61273804     0.15200
H1881       H  0.26313258  0.67748436  0.63434333     0.14900
N1882       N  0.27198387  0.64176546  0.68134942     0.74000
O1883       O  0.24697251  0.59082098  0.54717990    -0.39500
O1884       O  0.20033108  0.60329148  0.55876627    -0.39400
O1885       O  0.30019828  0.63754635  0.68511813    -0.40100
O1886       O  0.25808110  0.66026435  0.69874364    -0.40200
C1887       C  0.26555661  0.87773322  0.59631907    -0.12500
C1888       C  0.24826590  0.85119890  0.60156910     0.04500
C1889       C  0.23209892  0.84843397  0.62944140    -0.07800
C1890       C  0.23408801  0.87166849  0.65159545    -0.08500
C1891       C  0.25132473  0.89825040  0.64635027    -0.03100
C1892       C  0.26717526  0.90119814  0.61827004     0.03800
N1893       N  0.28591745  0.92723281  0.61203346     0.66300
H1894       H  0.27838607  0.88009081  0.57519333     0.15200
H1895       H  0.22113035  0.86935883  0.67264626     0.14900
N1896       N  0.21188472  0.82332942  0.63476868     0.74000
O1897       O  0.27700515  0.94688971  0.59270779    -0.39500
O1898       O  0.31366995  0.92651356  0.61963416    -0.39400
O1899       O  0.21835952  0.80382272  0.65518414    -0.40100
O1900       O  0.18497490  0.82477377  0.62458617    -0.40200
C1901       C  0.24685918  0.86729952  0.84264315    -0.12500
C1902       C  0.24747317  0.89818482  0.85203967     0.04500
C1903       C  0.24790582  0.90459837  0.88397021    -0.07800
C1904       C  0.24756189  0.88055206  0.90520281    -0.08500
C1905       C  0.24731845  0.84964582  0.89583349    -0.03100
C1906       C  0.24689505  0.84322286  0.86388412     0.03800
N1907       N  0.24690123  0.81253841  0.85222134     0.66300
H1908       H  0.24670515  0.86147496  0.81843607     0.15200
H1909       H  0.24798095  0.88642773  0.92940062     0.14900
N1910       N  0.24958446  0.93524713  0.89560122     0.74000
O1911       O  0.22198425  0.80058587  0.84413669    -0.39500
O1912       O  0.27151050  0.80117447  0.84240393    -0.39400
O1913       O  0.22615505  0.94735240  0.90727412    -0.40100
O1914       O  0.27537176  0.94669522  0.90128045    -0.40200
C1915       C  0.24438181  0.59429857  0.88045527    -0.12500
C1916       C  0.25245291  0.60340517  0.85068017     0.04500
C1917       C  0.25884720  0.63463466  0.84500767    -0.07800
C1918       C  0.25703126  0.65570551  0.86898241    -0.08500
C1919       C  0.24923388  0.64653369  0.89885884    -0.03100
C1920       C  0.24247966  0.61538363  0.90435064     0.03800
N1921       N  0.23063974  0.60501247  0.93299500     0.66300
H1922       H  0.23833408  0.57068266  0.88525990     0.15200
H1923       H  0.26203673  0.67949356  0.86398810     0.14900
N1924       N  0.26770688  0.64553385  0.81538627     0.74000
O1925       O  0.20213421  0.60331631  0.93582454    -0.39500
O1926       O  0.24724102  0.58866402  0.95010532    -0.39400
O1927       O  0.24969777  0.66266815  0.80063895    -0.40100
O1928       O  0.29554809  0.64532617  0.80826656    -0.40200
C1929       C  0.40480463  0.61888728  0.75000791    -0.12500
C1930       C  0.39578419  0.64982917  0.74887433     0.04500
C1931       C  0.36418378  0.65658207  0.74765271    -0.07800
C1932       C  0.34290809  0.63277118  0.74777847    -0.08500
C1933       C  0.35193752  0.60185641  0.74923880    -0.03100
C1934       C  0.38351706  0.59511639  0.75036604     0.03800
N1935       N  0.39475508  0.56436690  0.75190247     0.66300
H1936       H  0.42873620  0.61277980  0.75090061     0.15200
H1937       H  0.31897050  0.63883221  0.74689714     0.14900
N1938       N  0.35290350  0.68735714  0.74654427     0.74000
O1939       O  0.40467492  0.55188449  0.72773434    -0.39500
O1940       O  0.40219280  0.55333732  0.77765790    -0.39400
O1941       O  0.34207476  0.69746262  0.72164260    -0.40100
O1942       O  0.34615194  0.70073049  0.77136020    -0.40200
C1943       C  0.37752181  0.90312282  0.76451807    -0.12500
C1944       C  0.35088138  0.89790989  0.74753007     0.04500
C1945       C  0.34786017  0.87046020  0.73065927    -0.07800
C1946       C  0.37095163  0.84822882  0.73207175    -0.08500
C1947       C  0.39770267  0.85338883  0.74921272    -0.03100
C1948       C  0.40094366  0.88140411  0.76530017     0.03800
N1949       N  0.42745598  0.88802318  0.78319908     0.66300
H1950       H  0.38013999  0.92417797  0.77757316     0.15200
H1951       H  0.36839535  0.82725182  0.71889864     0.14900
N1952       N  0.32244547  0.86577267  0.71056369     0.74000
O1953       O  0.44881921  0.90301391  0.77105070    -0.39500
O1954       O  0.42585195  0.88667155  0.81212000    -0.39400
O1955       O  0.31986446  0.88163380  0.68643754    -0.40100
O1956       O  0.30093649  0.84841509  0.71860588    -0.40200
C1957       C  0.12786797  0.65399596  0.76323721    -0.12500
C1958       C  0.09992046  0.64711312  0.74913852     0.04500
C1959       C  0.09576847  0.61755868  0.73634740    -0.07800
C1960       C  0.11939366  0.59591905  0.73774805    -0.08500
C1961       C  0.14746972  0.60291548  0.75164571    -0.03100
C1962       C  0.15140816  0.63234050  0.76472067     0.03800
N1963       N  0.17892006  0.64068277  0.78005409     0.66300
H1964       H  0.13144313  0.67631180  0.77367636     0.15200
H1965       H  0.11585914  0.57361091  0.72728490     0.14900
N1966       N  0.06822802  0.60936912  0.72083737     0.74000
O1967       O  0.19720031  0.65840089  0.76657542    -0.39500
O1968       O  0.18064232  0.63771215  0.80885672    -0.39400
O1969       O  0.06712193  0.61080729  0.69189234    -0.40100
O1970       O  0.04829425  0.59413536  0.73499545    -0.40200
C1971       C  0.13064522  0.84472524  0.75431862    -0.12500
C1972       C  0.10056258  0.85337978  0.74750892     0.04500
C1973       C  0.09457397  0.88464320  0.74070583    -0.07800
C1974       C  0.11819473  0.90617033  0.74189980    -0.08500
C1975       C  0.14825121  0.89752430  0.74902584    -0.03100
C1976       C  0.15430462  0.86614187  0.75511354     0.03800
N1977       N  0.18415245  0.85536116  0.76268828     0.66300
H1978       H  0.13606028  0.82099981  0.75927320     0.15200
H1979       H  0.11291996  0.92983134  0.73631497     0.14900
N1980       N  0.06516560  0.89496325  0.73092044     0.74000
O1981       O  0.19120553  0.85177813  0.79057736    -0.39500
O1982       O  0.19980301  0.84211123  0.74227598    -0.39400
O1983       O  0.05118435  0.91458955  0.74693572    -0.40100
O1984       O  0.05759178  0.89146441  0.70314966    -0.40200
C1985       C  0.37524855  0.77010849  0.59992256    -0.12500
C1986       C  0.35067503  0.74959390  0.60285093     0.04500
C1987       C  0.34969317  0.73012196  0.62876263    -0.07800
C1988       C  0.37258662  0.73173320  0.65116475    -0.08500
C1989       C  0.39693580  0.75221076  0.64827139    -0.03100
C1990       C  0.39815753  0.77169607  0.62248116     0.03800
N1991       N  0.42188901  0.79395003  0.61958532     0.66300
H1992       H  0.37627422  0.78548830  0.58039674     0.15200
H1993       H  0.37183449  0.71614329  0.67051897     0.14900
N1994       N  0.32662424  0.70733637  0.63195006     0.74000
O1995       O  0.44365796  0.78911266  0.60130440    -0.39500
O1996       O  0.42338113  0.81607117  0.63830015    -0.39400
O1997       O  0.33096113  0.68113736  0.62030077    -0.40100
O1998       O  0.30710092  0.71039483  0.65296941    -0.40200
C1999       C  0.09537693  0.76077733  0.61927679    -0.12500
C2000       C  0.10175788  0.74681575  0.64763139     0.04500
C2001       C  0.13073767  0.73321094  0.65212104    -0.07800
C2002       C  0.15265835  0.73463003  0.62881478    -0.08500
C2003       C  0.14631823  0.74877235  0.60050810    -0.03100
C2004       C  0.11708981  0.76175274  0.59580404     0.03800
N2005       N  0.10913523  0.77678286  0.56772512     0.66300
H2006       H  0.07340320  0.77149508  0.61531634     0.15200
H2007       H  0.17461466  0.72385127  0.63270348     0.14900
N2008       N  0.13785253  0.71638611  0.67940605     0.74000
O2009       O  0.09528447  0.76183176  0.54716620    -0.39500
O2010       O  0.10863871  0.80573542  0.56687006    -0.39400
O2011       O  0.13408229  0.68767495  0.67959096    -0.40100
O2012       O  0.15463713  0.72850603  0.69960788    -0.40200
C2013       C  0.15540477  0.75368162  0.86787936    -0.12500
C2014       C  0.14708084  0.74706709  0.89826539     0.04500
C2015       C  0.11610533  0.74081513  0.90463704    -0.07800
C2016       C  0.09435646  0.74295191  0.88122425    -0.08500
C2017       C  0.10264586  0.74939442  0.85076787    -0.03100
C2018       C  0.13386642  0.75439169  0.84420240     0.03800
N2019       N  0.14441975  0.76048516  0.81379263     0.66300
H2020       H  0.17895367  0.75831586  0.86219512     0.15200
H2021       H  0.07078310  0.73874463  0.88698510     0.14900
N2022       N  0.10634751  0.73059185  0.93421929     0.74000
O2023       O  0.15098544  0.78767796  0.80649099    -0.39500
O2024       O  0.15478141  0.73861045  0.79785118    -0.39400
O2025       O  0.08956186  0.74777587  0.95028442    -0.40100
O2026       O  0.10787770  0.70236878  0.94054691    -0.40200
C2027       C  0.37156657  0.73358169  0.84749570    -0.12500
C2028       C  0.39888341  0.74909589  0.85377948     0.04500
C2029       C  0.40249297  0.76303678  0.88293466    -0.07800
C2030       C  0.37900763  0.76146276  0.90467220    -0.08500
C2031       C  0.35156122  0.74619007  0.89826717    -0.03100
C2032       C  0.34814650  0.73189420  0.86929540     0.03800
N2033       N  0.32185810  0.71405659  0.86211938     0.66300
H2034       H  0.36851045  0.72211173  0.82561295     0.15200
H2035       H  0.38210981  0.77293618  0.92657620     0.14900
N2036       N  0.42891593  0.78062518  0.89031940     0.74000
O2037       O  0.30123390  0.72558696  0.84547827    -0.39500
O2038       O  0.32319132  0.68529306  0.86523110    -0.39400
O2039       O  0.42663229  0.80948134  0.89146993    -0.40100
O2040       O  0.45112433  0.76765306  0.90347299    -0.40200
C2041       C  0.38012067  0.84418294  0.00817703    -0.12500
C2042       C  0.35115719  0.85179278  0.50109179     0.04500
C2043       C  0.34714126  0.88115905  0.48784570    -0.07800
C2044       C  0.37079988  0.90265799  0.48879038    -0.08500
C2045       C  0.39888338  0.89597135  0.50284228    -0.03100
C2046       C  0.40367415  0.86584705  0.00918023     0.03800
N2047       N  0.43278357  0.85615150  0.02034835     0.66300
H2048       H  0.38510831  0.82094132  0.01550947     0.15200
H2049       H  0.36722761  0.92468910  0.47779548     0.14900
N2050       N  0.31976441  0.88925666  0.47199550     0.74000
O2051       O  0.43847131  0.85817587  0.04871538    -0.39500
O2052       O  0.44903821  0.83883477  0.00384981    -0.39400
O2053       O  0.30050910  0.90626656  0.48523380    -0.40100
O2054       O  0.31014045  0.89165607  0.95055926    -0.40200
C2055       C  0.37029931  0.59531908  0.48951380    -0.12500
C2056       C  0.40005574  0.60404108  0.49773276     0.04500
C2057       C  0.40423067  0.63357098  0.00533536    -0.07800
C2058       C  0.38019855  0.65469370  0.00518560    -0.08500
C2059       C  0.35146648  0.64729978  0.49768259    -0.03100
C2060       C  0.34624412  0.61640491  0.48923308     0.03800
N2061       N  0.31698903  0.60600675  0.47928876     0.66300
H2062       H  0.36549773  0.57186510  0.48276783     0.15200
H2063       H  0.38572643  0.67879712  0.00763839     0.14900
N2064       N  0.43434288  0.64510026  0.00970692     0.74000
O2065       O  0.31073051  0.60622483  0.45097038    -0.39500
O2066       O  0.30112597  0.58987567  0.49719275    -0.39400
O2067       O  0.44948662  0.65350550  0.98660215    -0.40100
O2068       O  0.44201293  0.65459627  0.03599884    -0.40200
C2069       C  0.15452780  0.87993439  0.51042663    -0.12500
C2070       C  0.14742023  0.85132376  0.49733575     0.04500
C2071       C  0.11766717  0.84635074  0.98760121    -0.07800
C2072       C  0.09565352  0.86947663  0.98950756    -0.08500
C2073       C  0.10291145  0.89856578  0.50122506    -0.03100
C2074       C  0.13273980  0.90336379  0.51260383     0.03800
N2075       N  0.14106238  0.93123161  0.52779056     0.66300
H2076       H  0.17702797  0.88401028  0.51986830     0.15200
H2077       H  0.07323555  0.86507984  0.98000266     0.14900
N2078       N  0.10943885  0.81816753  0.97309401     0.74000
O2079       O  0.13902479  0.93281224  0.55667332    -0.39500
O2080       O  0.15524022  0.95113239  0.01504028    -0.39400
O2081       O  0.09045029  0.80092231  0.48479321    -0.40100
O2082       O  0.11179720  0.81582776  0.94428614    -0.40200
C2083       C  0.09461562  0.63034963  0.50785214    -0.12500
C2084       C  0.10200641  0.60030564  0.49895989     0.04500
C2085       C  0.12995646  0.59624143  0.99007024    -0.07800
C2086       C  0.15462530  0.61654838  0.49211902    -0.08500
C2087       C  0.14713147  0.64685680  0.50051190    -0.03100
C2088       C  0.11661474  0.65343845  0.50880612     0.03800
N2089       N  0.10770688  0.68286717  0.52024580     0.66300
H2090       H  0.07162913  0.63597218  0.51501407     0.15200
H2091       H  0.17784831  0.61062907  0.48631017     0.14900
N2092       N  0.13639262  0.56864162  0.97338266     0.74000
O2093       O  0.09528569  0.70116318  0.02203428    -0.39500
O2094       O  0.10965632  0.68806618  0.54871617    -0.39400
O2095       O  0.12332254  0.56359033  0.94800865    -0.40100
O2096       O  0.15470147  0.54536330  0.49771537    -0.40200
C2097       C  0.37395330  0.51851039  0.90078595    -0.12500
C2098       C  0.39970298  0.49979018  0.89687273     0.04500
C2099       C  0.40315364  0.98509495  0.86729854    -0.07800
C2100       C  0.37960811  0.98583179  0.84549809    -0.08500
C2101       C  0.35350615  0.50214066  0.85128334    -0.03100
C2102       C  0.35116114  0.52009186  0.87825756     0.03800
N2103       N  0.32689494  0.54165645  0.88223750     0.66300
H2104       H  0.37186776  0.53269709  0.92117204     0.15200
H2105       H  0.38321001  0.97469019  0.82350813     0.14900
N2106       N  0.43070969  0.96903856  0.86012297     0.74000
O2107       O  0.30533881  0.53533737  0.90026481    -0.39500
O2108       O  0.33084030  0.56915013  0.87409117    -0.39400
O2109       O  0.43627098  0.94342028  0.87246240    -0.40100
O2110       O  0.45075237  0.98175354  0.84379513    -0.40200
C2111       C  0.09670627  0.01200854  0.87103397    -0.12500
C2112       C  0.10493176  0.49877914  0.90148906     0.04500
C2113       C  0.13365540  0.48445553  0.90542387    -0.07800
C2114       C  0.15559842  0.48608170  0.88207509    -0.08500
C2115       C  0.14983439  0.50207593  0.85466837    -0.03100
C2116       C  0.11815493  0.01382940  0.84731093     0.03800
N2117       N  0.10969009  0.02926122  0.81960189     0.66300
H2118       H  0.07419629  0.02129781  0.86703388     0.15200
H2119       H  0.17717784  0.47435219  0.88529331     0.14900
N2120       N  0.14096656  0.46787617  0.93274758     0.74000
O2121       O  0.09477743  0.01492638  0.79936596    -0.39500
O2122       O  0.12041129  0.56508165  0.82769536    -0.39400
O2123       O  0.14322784  0.94663161  0.93633371    -0.40100
O2124       O  0.15670463  0.48091647  0.95321044    -0.40200
C2125       C  0.11992170  0.99004001  0.65415942    -0.12500
C2126       C  0.14529738  0.50323051  0.64986153     0.04500
C2127       C  0.14905836  0.51651643  0.62051732    -0.07800
C2128       C  0.12563088  0.51484198  0.59877502    -0.08500
C2129       C  0.09781995  0.50058836  0.60549910    -0.03100
C2130       C  0.09589602  0.98927775  0.63299137     0.03800
N2131       N  0.06840881  0.97394046  0.64141632     0.66300
H2132       H  0.11640447  0.97985735  0.67658209     0.15200
H2133       H  0.12909015  0.52552236  0.57656965     0.14900
N2134       N  0.17559423  0.53372105  0.61293314     0.74000
O2135       O  0.04964879  0.98730760  0.65886277    -0.39500
O2136       O  0.06646347  0.94528704  0.63759546    -0.39400
O2137       O  0.19548333  0.52171846  0.59576977    -0.40100
O2138       O  0.17466339  0.56254825  0.61563895    -0.40200
C2139       C  0.34262521  0.51141112  0.61780704    -0.12500
C2140       C  0.35023966  0.50052806  0.64723690     0.04500
C2141       C  0.38264849  0.98598526  0.65349478    -0.07800
C2142       C  0.40412374  0.98697881  0.62979363    -0.08500
C2143       C  0.39472214  0.50337453  0.59997411    -0.03100
C2144       C  0.36433678  0.51285737  0.59427661     0.03800
N2145       N  0.35502069  0.52444531  0.56500466     0.66300
H2146       H  0.31964096  0.51919085  0.61295683     0.15200
H2147       H  0.42727785  0.97987726  0.63485917     0.14900
N2148       N  0.39220697  0.97472196  0.68281914     0.74000
O2149       O  0.34076944  0.99552464  0.54755300    -0.39500
O2150       O  0.35528920  0.55303296  0.56037177    -0.39400
O2151       O  0.39242681  0.94614298  0.68751319    -0.40100
O2152       O  0.40363204  0.49413814  0.70084320    -0.40200
C2153       C  0.00451244  0.63022090  0.90512967    -0.12500
C2154       C  0.99855534  0.59979531  0.89650455     0.04500
C2155       C  0.48228571  0.59628847  0.86797471    -0.07800
C2156       C  0.48325612  0.61976767  0.84595296    -0.08500
C2157       C  0.99921043  0.64775748  0.85216635    -0.03100
C2158       C  0.00551545  0.65385986  0.88352045     0.03800
N2159       N  0.01532922  0.68332872  0.89382883     0.66300
H2160       H  0.00963564  0.63580767  0.92885962     0.15200
H2161       H  0.47248954  0.61595612  0.82383807     0.14900
N2162       N  0.46695270  0.56836637  0.86033880     0.74000
O2163       O  0.99703001  0.69994368  0.90873737    -0.39500
O2164       O  0.04351878  0.68810773  0.89657658    -0.39400
O2165       O  0.43824254  0.56747167  0.86152264    -0.40100
O2166       O  0.48101921  0.54795150  0.84538285    -0.40200
C2167       C  0.01761843  0.90259413  0.87078842    -0.12500
C2168       C  0.00241903  0.89719697  0.89846069     0.04500
C2169       C  0.48936365  0.86756320  0.90421602    -0.07800
C2170       C  0.49127153  0.84507339  0.88144250    -0.08500
C2171       C  0.00382791  0.85178290  0.85241153    -0.03100
C2172       C  0.01852667  0.88021603  0.84787902     0.03800
N2173       N  0.03446219  0.88692463  0.82019077     0.66300
H2174       H  0.02914902  0.92422856  0.86696071     0.15200
H2175       H  0.48306977  0.82226037  0.88651536     0.14900
N2176       N  0.47541874  0.85994814  0.93285410     0.74000
O2177       O  0.02156131  0.90359779  0.80037772    -0.39500
O2178       O  0.06303708  0.88371093  0.81944299    -0.39400
O2179       O  0.44963287  0.87092621  0.93959548    -0.40100
O2180       O  0.49029535  0.84504670  0.95271317    -0.40200
C2181       C  0.48708662  0.90445193  0.63036804    -0.12500
C2182       C  0.00190166  0.89911771  0.60286853     0.04500
C2183       C  0.01504971  0.86996816  0.59764318    -0.07800
C2184       C  0.01353399  0.84755499  0.62048399    -0.08500
C2185       C  0.99980565  0.85384791  0.64896722    -0.03100
C2186       C  0.48582456  0.88218982  0.65327348     0.03800
N2187       N  0.46971700  0.88928258  0.68090874     0.66300
H2188       H  0.47574880  0.92626255  0.63421159     0.15200
H2189       H  0.02390905  0.82536008  0.61615947     0.14900
N2190       N  0.03098336  0.86316001  0.56976984     0.74000
O2191       O  0.44179191  0.88277187  0.68278896    -0.39500
O2192       O  0.48104563  0.90824807  0.69964118    -0.39400
O2193       O  0.05561780  0.87673985  0.56372364    -0.40100
O2194       O  0.01906598  0.84572781  0.54995114    -0.40200
C2195       C  0.51586687  0.62869847  0.59721085    -0.12500
C2196       C  0.99818928  0.60248038  0.60171718     0.04500
C2197       C  0.98100315  0.60001389  0.62901891    -0.07800
C2198       C  0.98270030  0.62317343  0.65122950    -0.08500
C2199       C  0.00116829  0.64902956  0.64685552    -0.03100
C2200       C  0.51754966  0.65176256  0.61952396     0.03800
N2201       N  0.53774935  0.67695899  0.61459586     0.66300
H2202       H  0.52928676  0.63098448  0.57645232     0.15200
H2203       H  0.96891256  0.62121960  0.67177801     0.14900
N2204       N  0.96068241  0.57492030  0.63402083     0.74000
O2205       O  0.56490042  0.67501147  0.62400802    -0.39500
O2206       O  0.53094641  0.69705265  0.59486852    -0.39400
O2207       O  0.96812289  0.55403521  0.65266794    -0.40100
O2208       O  0.93317917  0.57746211  0.62588508    -0.40200
O2209       O  0.49911618  0.04798252  0.08788428    -0.86700
O2210       O  0.50019743  0.04757495  0.41133947    -0.86900
O2211       O  0.54890352  0.08673231  0.99962618    -0.88500
O2212       O  0.95099215  0.08783904  0.99713274    -0.87300
O2213       O  0.91437708  0.05045838  0.99629175    -0.86900
O2214       O  0.58563921  0.04923985  0.00128769    -0.88200
O2215       O  0.49915437  0.08501670  0.44848584    -0.86700
O2216       O  0.49986409  0.08515550  0.05060704    -0.86300
Zr2217     Zr  0.49948727  0.06131961  0.99965379     2.84300
O2218       O  0.96898209  0.02937399  0.46760171    -1.08300
O2219       O  0.52950647  0.03037981  0.03164787    -1.09000
C2220       C  0.49974593  0.07614334  0.07895934     1.06400
C2221       C  0.49956079  0.07587824  0.42017125     1.06400
C2222       C  0.57692463  0.07754787  0.00022154     1.09300
C2223       C  0.92298717  0.07888508  0.99611748     1.07100
H2224       H  0.54353024  0.04269438  0.45624548     0.32700
O2225       O  0.53097139  0.03027166  0.46885097    -1.29200
H2226       H  0.95500529  0.04393090  0.04260878     0.32400
O2227       O  0.96812609  0.03088516  0.02999806    -1.30900
O2228       O  0.49982275  0.44952074  0.41349737    -0.86700
O2229       O  0.49859818  0.44959671  0.08729168    -0.88200
O2230       O  0.58842419  0.99691833  0.45213591    -0.86800
O2231       O  0.91418348  0.99811571  0.44830708    -0.86800
O2232       O  0.91082914  0.99954858  0.04660631    -0.86500
O2233       O  0.58376301  0.99818866  0.05210236    -0.86300
O2234       O  0.55019960  0.41303642  0.00112676    -0.86700
O2235       O  0.95197085  0.41036772  0.00233365    -0.86200
O2236       O  0.58711696  0.45006384  0.00309994    -0.87200
O2237       O  0.91536663  0.44789855  0.00192931    -0.86400
O2238       O  0.55191887  0.99743372  0.41435599    -0.86800
O2239       O  0.54661245  0.99647573  0.08906044    -0.86500
O2240       O  0.94706760  0.99805838  0.08456425    -0.86200
O2241       O  0.95171388  0.99738634  0.41163381    -0.86600
O2242       O  0.49874901  0.41252696  0.45082535    -0.86900
O2243       O  0.50008363  0.41246728  0.04989732    -0.88200
Zr2244     Zr  0.50106125  0.99846165  0.43788101     2.83900
Zr2245     Zr  0.49793835  0.99908131  0.06167980     2.83500
Zr2246     Zr  0.56074837  0.99947014  0.00100318     2.84100
Zr2247     Zr  0.93834035  0.99961751  0.99824423     2.83400
Zr2248     Zr  0.50012462  0.43750386  0.00031458     2.84200
O2249       O  0.96905524  0.46805706  0.03131881    -1.08800
O2250       O  0.53088897  0.46732493  0.47025284    -1.08300
C2251       C  0.49899144  0.42136720  0.42250207     1.06400
C2252       C  0.49961010  0.42143028  0.07813504     1.09000
C2253       C  0.57999241  0.99675475  0.42368067     1.06600
C2254       C  0.92351843  0.99758845  0.42020424     1.06900
C2255       C  0.91907485  0.99834035  0.07504938     1.06500
C2256       C  0.57476068  0.99671987  0.08035913     1.06100
C2257       C  0.57829262  0.42186767  0.00240093     1.06500
C2258       C  0.92390866  0.41940080  0.00288520     1.06000
H2259       H  0.54266644  0.45552618  0.04520771     0.32700
O2260       O  0.53024248  0.46820553  0.03229428    -1.29900
H2261       H  0.95613145  0.45589754  0.45564456     0.32700
O2262       O  0.96873999  0.46865530  0.46848273    -1.31200
O2263       O  0.49708931  0.19999569  0.16207543    -0.86700
O2264       O  0.50158719  0.20044169  0.33738271    -0.86900
O2265       O  0.54679324  0.16076788  0.24912734    -0.88500
O2266       O  0.94771969  0.16477451  0.25060596    -0.87300
O2267       O  0.91094607  0.20207510  0.25000176    -0.86900
O2268       O  0.58369614  0.19778264  0.24867540    -0.88200
O2269       O  0.49931098  0.16337254  0.29993648    -0.86700
O2270       O  0.49728903  0.16307220  0.19960800    -0.86300
Zr2271     Zr  0.49820851  0.18810869  0.24969224     2.84300
O2272       O  0.96814115  0.21954306  0.28116236    -1.08300
O2273       O  0.52924052  0.21819399  0.21808593    -1.09000
C2274       C  0.49689385  0.17181983  0.17123277     1.06400
C2275       C  0.50088370  0.17217584  0.32829240     1.06400
C2276       C  0.57492421  0.16940856  0.24895431     1.09300
C2277       C  0.91958879  0.17374055  0.25042966     1.07100
H2278       H  0.54284639  0.20574083  0.29270999     0.32700
O2279       O  0.53005619  0.21866213  0.28009849    -1.29200
H2280       H  0.95447605  0.20689729  0.20579101     0.32400
O2281       O  0.96758890  0.21946819  0.21855502    -1.30900
O2282       O  0.50158815  0.30035127  0.33630066    -0.86700
O2283       O  0.49890605  0.29984110  0.16249852    -0.88200
O2284       O  0.58755689  0.24911273  0.29699983    -0.86800
O2285       O  0.91339210  0.25027609  0.30066776    -0.86800
O2286       O  0.91279217  0.25256665  0.19993433    -0.86500
O2287       O  0.58602950  0.24667877  0.19915137    -0.86300
O2288       O  0.54923653  0.33728761  0.24776124    -0.86700
O2289       O  0.95044248  0.33772606  0.24912247    -0.86200
O2290       O  0.58580438  0.29955619  0.24826910    -0.87200
O2291       O  0.91310513  0.30096450  0.24857457    -0.86400
O2292       O  0.55095644  0.25036614  0.33436092    -0.86800
O2293       O  0.54867253  0.24775257  0.16225408    -0.86500
O2294       O  0.94936834  0.25234736  0.16232803    -0.86200
O2295       O  0.95052510  0.25056854  0.33788897    -0.86600
O2296       O  0.50181787  0.33738575  0.29897194    -0.86900
O2297       O  0.49847094  0.33691447  0.19996398    -0.88200
Zr2298     Zr  0.50018306  0.25018316  0.31151776     2.83100
Zr2299     Zr  0.49872027  0.24978429  0.18742114     2.83500
Zr2300     Zr  0.56068561  0.24908616  0.24850417     2.84100
Zr2301     Zr  0.93768730  0.25094268  0.25009710     2.83400
Zr2302     Zr  0.49998962  0.31170783  0.24945821     2.84200
O2303       O  0.96858787  0.28113747  0.21865119    -1.08800
O2304       O  0.53101317  0.28063743  0.28018758    -1.08300
C2305       C  0.50207187  0.32860727  0.32725917     1.06400
C2306       C  0.49840025  0.32806933  0.17169764     1.09000
C2307       C  0.57900375  0.24972548  0.32527146     1.06600
C2308       C  0.92236300  0.25022197  0.32902893     1.06900
C2309       C  0.92142946  0.25322531  0.17154390     1.06500
C2310       C  0.57690154  0.24661683  0.17098230     1.06100
C2311       C  0.57721655  0.32807580  0.24778459     1.06500
C2312       C  0.92230733  0.32907717  0.24853132     1.06000
H2313       H  0.54298393  0.29321047  0.20469371     0.32700
O2314       O  0.53026821  0.28066714  0.21771738    -1.29900
H2315       H  0.95633773  0.29488685  0.29389654     0.32700
O2316       O  0.96878126  0.28182913  0.28103440    -1.31200
O2317       O  0.83676498  0.49701349  0.20011998    -0.86700
O2318       O  0.66363196  0.50035503  0.20091418    -0.86900
O2319       O  0.75150591  0.44943761  0.16244856    -0.88500
O2320       O  0.75103744  0.04933296  0.16263605    -0.87300
O2321       O  0.75145815  0.08669541  0.19969146    -0.86900
O2322       O  0.75007393  0.41238211  0.19988373    -0.88200
O2323       O  0.70001374  0.50038702  0.16314138    -0.86700
O2324       O  0.79973108  0.49765073  0.16294473    -0.86300
Zr2325     Zr  0.75008792  0.49916859  0.18809379     2.84300
O2326       O  0.71891522  0.03062224  0.21838337    -1.08300
O2327       O  0.78061589  0.46785650  0.21901260    -1.09000
C2328       C  0.82785644  0.49681845  0.17186394     1.06400
C2329       C  0.67203038  0.50063655  0.17247948     1.06400
C2330       C  0.75115556  0.42123495  0.17156384     1.09300
C2331       C  0.75168983  0.07764140  0.17149304     1.07100
H2332       H  0.70621662  0.45554056  0.20629780     0.32700
O2333       O  0.71908836  0.46822725  0.21900740    -1.29200
H2334       H  0.79427950  0.04268281  0.20489329     0.32400
O2335       O  0.78143934  0.03021055  0.21779707    -1.30900
O2336       O  0.66387156  0.49953781  0.30031902    -0.86700
O2337       O  0.83772017  0.49817457  0.29929169    -0.88200
O2338       O  0.70046461  0.41159303  0.25227577    -0.86800
O2339       O  0.70107517  0.08702220  0.24906191    -0.86800
O2340       O  0.80091489  0.08490682  0.24981360    -0.86500
O2341       O  0.79944657  0.41168254  0.24773609    -0.86300
O2342       O  0.75120402  0.44997270  0.33788708    -0.86700
O2343       O  0.75355797  0.05021553  0.33471701    -0.86200
O2344       O  0.75101402  0.41293278  0.30049140    -0.87200
O2345       O  0.75276878  0.08749510  0.29769384    -0.86400
O2346       O  0.66396557  0.44941469  0.25125658    -0.86800
O2347       O  0.83635782  0.44888662  0.24828050    -0.86500
O2348       O  0.83796323  0.04789643  0.24939959    -0.86200
O2349       O  0.66438891  0.04978336  0.24927537    -0.86600
O2350       O  0.70099735  0.49914883  0.33740523    -0.86900
O2351       O  0.80115083  0.50031543  0.33686009    -0.88200
Zr2352     Zr  0.68917499  0.49972616  0.25055801     2.83100
Zr2353     Zr  0.81182615  0.49844484  0.24985131     2.83500
Zr2354     Zr  0.74995519  0.43718209  0.25012467     2.84100
Zr2355     Zr  0.75064532  0.06107611  0.24897223     2.83400
Zr2356     Zr  0.75101039  0.49921144  0.31211419     2.84200
O2357       O  0.78158399  0.03033295  0.28007156    -1.08800
O2358       O  0.71972740  0.46842601  0.28142964    -1.08300
C2359       C  0.67274482  0.49921769  0.32863871     1.06400
C2360       C  0.82915059  0.49967052  0.32760851     1.09000
C2361       C  0.67245504  0.42090137  0.25214787     1.06600
C2362       C  0.67296153  0.07816991  0.24915169     1.06900
C2363       C  0.82909956  0.07612605  0.24987007     1.06500
C2364       C  0.82745006  0.42077424  0.24732950     1.06100
C2365       C  0.75123517  0.42177458  0.32887229     1.06500
C2366       C  0.75387980  0.07846659  0.32581830     1.06000
H2367       H  0.79428617  0.45469248  0.29385519     0.32700
O2368       O  0.78144788  0.46755546  0.28119623    -1.29900
H2369       H  0.70737367  0.04386754  0.29343213     0.32700
O2370       O  0.71982287  0.03081213  0.28058604    -1.31200
O2371       O  0.69749468  0.16215662  0.49985912    -0.86700
O2372       O  0.69752144  0.33532448  0.50043299    -0.86900
O2373       O  0.66126522  0.25021315  0.04825670    -0.88500
O2374       O  0.66116657  0.24853360  0.45035452    -0.87300
O2375       O  0.69810921  0.24760858  0.41334619    -0.86900
O2376       O  0.69799828  0.24888822  0.08575387    -0.88200
O2377       O  0.66103963  0.29782546  0.49958100    -0.86700
O2378       O  0.66091483  0.19975694  0.50105185    -0.86300
Zr2379     Zr  0.68706449  0.24868033  0.49955717     2.84300
O2380       O  0.71726427  0.27957773  0.46813410    -1.08300
O2381       O  0.71776260  0.21764894  0.03060647    -1.09000
C2382       C  0.66941946  0.17142469  0.50077463     1.06400
C2383       C  0.66948254  0.32612371  0.50035869     1.06400
C2384       C  0.66991204  0.24979044  0.07657258     1.09300
C2385       C  0.66997436  0.24777755  0.42214633     1.07100
H2386       H  0.70483026  0.29277037  0.04326348     0.32700
O2387       O  0.71771651  0.28000040  0.03056999    -1.29200
H2388       H  0.70422078  0.20440075  0.45543675     0.32400
O2389       O  0.71701071  0.21724775  0.46808226    -1.30900
O2390       O  0.79648307  0.33726739  0.50035083    -0.86700
O2391       O  0.79714349  0.16080950  0.49690528    -0.88200
O2392       O  0.74709531  0.29792121  0.08789746    -0.86800
O2393       O  0.74778757  0.29723409  0.41152077    -0.86800
O2394       O  0.74853558  0.19786478  0.41317983    -0.86500
O2395       O  0.74785010  0.19847047  0.08579388    -0.86300
O2396       O  0.83550836  0.25112906  0.04999725    -0.86700
O2397       O  0.83452043  0.24784195  0.44890289    -0.86200
O2398       O  0.79831813  0.25015868  0.08697716    -0.87200
O2399       O  0.79772985  0.24556194  0.41140975    -0.86400
O2400       O  0.74814977  0.33514286  0.05059182    -0.86800
O2401       O  0.74859846  0.16140603  0.04839959    -0.86500
O2402       O  0.74821828  0.16061879  0.45021317    -0.86200
O2403       O  0.74661784  0.33439707  0.44882741    -0.86600
O2404       O  0.83356544  0.30016969  0.50038896    -0.86900
O2405       O  0.83396606  0.19809341  0.49751766    -0.88200
Zr2406     Zr  0.74775660  0.31059708  0.49945012     2.83100
Zr2407     Zr  0.74786841  0.18674007  0.49931708     2.83500
Zr2408     Zr  0.74839741  0.24877699  0.06157620     2.84100
Zr2409     Zr  0.74824961  0.24808813  0.43752896     2.83400
Zr2410     Zr  0.80993171  0.24894999  0.49920306     2.84200
O2411       O  0.77899038  0.21757053  0.46869265    -1.08800
O2412       O  0.77913946  0.27999864  0.03090057    -1.08300
C2413       C  0.82464696  0.32861561  0.50084686     1.06400
C2414       C  0.82519866  0.16971200  0.49658274     1.09000
C2415       C  0.74743012  0.32612902  0.07891351     1.06600
C2416       C  0.74704685  0.32545653  0.42046961     1.06900
C2417       C  0.74859060  0.16957489  0.42202649     1.06500
C2418       C  0.74799488  0.17022393  0.07665702     1.06100
C2419       C  0.82650929  0.25107479  0.07829764     1.06500
C2420       C  0.82582813  0.24618683  0.42051168     1.06000
H2421       H  0.79246918  0.20530929  0.04351314     0.32700
O2422       O  0.77971745  0.21807787  0.03066394    -1.29900
H2423       H  0.79150440  0.29254233  0.45529453     0.32700
O2424       O  0.77892101  0.27980377  0.46817193    -1.31200
C2425       C  0.74178445  0.09362597  0.11773688    -0.12500
C2426       C  0.75203213  0.10141358  0.14730399     0.04500
C2427       C  0.76112861  0.13195009  0.15322607    -0.07800
C2428       C  0.75866446  0.15396549  0.13012795    -0.08500
C2429       C  0.74832487  0.14621884  0.10060459    -0.03100
C2430       C  0.73956598  0.11560117  0.09455940     0.03800
N2431       N  0.72672928  0.10665789  0.06568634     0.66300
H2432       H  0.73478634  0.07037406  0.11258049     0.15200
H2433       H  0.76544047  0.17725818  0.13531480     0.14900
N2434       N  0.77453471  0.14076225  0.18187065     0.74000
O2435       O  0.74268264  0.09147580  0.04693421    -0.39500
O2436       O  0.69820531  0.10765398  0.06211909    -0.39400
O2437       O  0.80297419  0.13819795  0.18532555    -0.40100
O2438       O  0.75961648  0.15743196  0.20022267    -0.40200
C2439       C  0.76510120  0.37673472  0.09766915    -0.12500
C2440       C  0.74783765  0.35019721  0.10285326     0.04500
C2441       C  0.73209350  0.34705194  0.13095288    -0.07800
C2442       C  0.73403320  0.37023850  0.15313422    -0.08500
C2443       C  0.75107449  0.39692856  0.14782445    -0.03100
C2444       C  0.76691271  0.39998086  0.11977805     0.03800
N2445       N  0.78594579  0.42585039  0.11379535     0.66300
H2446       H  0.77782543  0.37922712  0.07649603     0.15200
H2447       H  0.72131819  0.36772911  0.17431111     0.14900
N2448       N  0.71258478  0.32146002  0.13665519     0.74000
O2449       O  0.77712864  0.44594334  0.09488467    -0.39500
O2450       O  0.81375077  0.42462741  0.12113931    -0.39400
O2451       O  0.72077374  0.30120511  0.15567934    -0.40100
O2452       O  0.68494402  0.32305854  0.12875950    -0.40200
C2453       C  0.74369588  0.36735986  0.34379217    -0.12500
C2454       C  0.75098752  0.39746323  0.35267528     0.04500
C2455       C  0.75698046  0.40349044  0.38406154    -0.07800
C2456       C  0.75516308  0.37977246  0.40548767    -0.08500
C2457       C  0.74759292  0.34972317  0.39662952    -0.03100
C2458       C  0.74166907  0.34369651  0.36524257     0.03800
N2459       N  0.73222425  0.31413675  0.35469165     0.66300
H2460       H  0.73886760  0.36203482  0.31997352     0.15200
H2461       H  0.76013773  0.38504437  0.42929422     0.14900
N2462       N  0.76572120  0.43325371  0.39471332     0.74000
O2463       O  0.70412337  0.30852048  0.35253842    -0.39500
O2464       O  0.75096221  0.29731230  0.34049682    -0.39400
O2465       O  0.74647244  0.44974244  0.40860377    -0.40100
O2466       O  0.79364851  0.43979587  0.39667283    -0.40200
C2467       C  0.74501685  0.09340023  0.37964238    -0.12500
C2468       C  0.75432842  0.10201936  0.35013457     0.04500
C2469       C  0.76176814  0.13301100  0.34449690    -0.07800
C2470       C  0.75908692  0.15448995  0.36813377    -0.08500
C2471       C  0.74988316  0.14583318  0.39775673    -0.03100
C2472       C  0.74254130  0.11477551  0.40325290     0.03800
N2473       N  0.72932793  0.10478166  0.43140863     0.66300
H2474       H  0.73834138  0.06994578  0.38439705     0.15200
H2475       H  0.76457976  0.17813953  0.36319454     0.14900
N2476       N  0.77297853  0.14305194  0.31537956     0.74000
O2477       O  0.70125408  0.09879784  0.43147561    -0.39500
O2478       O  0.74616966  0.09217499  0.45123953    -0.39400
O2479       O  0.75712359  0.16120800  0.29936978    -0.40100
O2480       O  0.80090391  0.13982034  0.30934529    -0.40200
C2481       C  0.90524790  0.11846253  0.25282107    -0.12500
C2482       C  0.89583892  0.14929395  0.25064334     0.04500
C2483       C  0.86421725  0.15553408  0.24841065    -0.07800
C2484       C  0.84332297  0.13139160  0.24835665    -0.08500
C2485       C  0.85274204  0.10059939  0.25031961    -0.03100
C2486       C  0.88433703  0.09431590  0.25259464     0.03800
N2487       N  0.89592871  0.06368790  0.25465921     0.66300
H2488       H  0.92921479  0.11272055  0.25464288     0.15200
H2489       H  0.81934766  0.13710351  0.24661299     0.14900
N2490       N  0.85253803  0.18606297  0.24579675     0.74000
O2491       O  0.90562632  0.05060889  0.23068441    -0.39500
O2492       O  0.90335278  0.05310650  0.28060647    -0.39400
O2493       O  0.84311477  0.19522753  0.21997329    -0.40100
O2494       O  0.84363297  0.19975984  0.26973221    -0.40200
C2495       C  0.87825432  0.40252721  0.26351555    -0.12500
C2496       C  0.85164849  0.39740396  0.24642778     0.04500
C2497       C  0.84875347  0.37025453  0.22908989    -0.07800
C2498       C  0.87197464  0.34815456  0.23013561    -0.08500
C2499       C  0.89853022  0.35311047  0.24764679    -0.03100
C2500       C  0.90162877  0.38079836  0.26422141     0.03800
N2501       N  0.92761118  0.38665046  0.28315350     0.66300
H2502       H  0.88068574  0.42331281  0.27703370     0.15200
H2503       H  0.86955860  0.32734461  0.21667004     0.14900
N2504       N  0.82310517  0.36557968  0.20929156     0.74000
O2505       O  0.94810198  0.40441231  0.27346829    -0.39500
O2506       O  0.92625467  0.38074731  0.31149989    -0.39400
O2507       O  0.81957080  0.38232016  0.18589188    -0.40100
O2508       O  0.80202518  0.34770536  0.21735469    -0.40200
C2509       C  0.63000594  0.15493911  0.24914590    -0.12500
C2510       C  0.59940657  0.14540135  0.24922151     0.04500
C2511       C  0.59345888  0.11343942  0.24974793    -0.07800
C2512       C  0.61766406  0.09238097  0.24954867    -0.08500
C2513       C  0.64828145  0.10197476  0.24922619    -0.03100
C2514       C  0.65416195  0.13390628  0.24927036     0.03800
N2515       N  0.68443333  0.14578003  0.24976571     0.66300
H2516       H  0.63558181  0.17915016  0.24906586     0.15200
H2517       H  0.61215226  0.06815722  0.24985634     0.14900
N2518       N  0.56315112  0.10160372  0.25090089     0.74000
O2519       O  0.69660907  0.15382245  0.22481858    -0.39500
O2520       O  0.69513496  0.15578407  0.27476825    -0.39400
O2521       O  0.55098607  0.09176565  0.22651790    -0.40100
O2522       O  0.55234769  0.09347849  0.27647500    -0.40200
C2523       C  0.62815660  0.34652849  0.26486037    -0.12500
C2524       C  0.60138361  0.35203513  0.24813747     0.04500
C2525       C  0.59792563  0.38071727  0.23332710    -0.07800
C2526       C  0.62110835  0.40279748  0.23531463    -0.08500
C2527       C  0.64804655  0.39714292  0.25192598    -0.03100
C2528       C  0.65121468  0.36864172  0.26715058     0.03800
N2529       N  0.67664923  0.36241405  0.28671654     0.66300
H2530       H  0.63073624  0.32519954  0.27715857     0.15200
H2531       H  0.61820165  0.42434485  0.22321892     0.14900
N2532       N  0.57154248  0.38751001  0.21527157     0.74000
O2533       O  0.67432686  0.36799560  0.31508620    -0.39500
O2534       O  0.69713810  0.34421986  0.27757109    -0.39400
O2535       O  0.55102704  0.40457505  0.22632469    -0.40100
O2536       O  0.57211931  0.38261365  0.18668829    -0.40200
C2537       C  0.87841037  0.26700874  0.09655907    -0.12500
C2538       C  0.85049893  0.25227353  0.10259548     0.04500
C2539       C  0.84623727  0.23874746  0.13178169    -0.07800
C2540       C  0.86938431  0.23993063  0.15384296    -0.08500
C2541       C  0.89719832  0.25430336  0.14778371    -0.03100
C2542       C  0.90154027  0.26836563  0.11891042     0.03800
N2543       N  0.92878343  0.28508937  0.11242617     0.66300
H2544       H  0.88210649  0.27805568  0.07458586     0.15200
H2545       H  0.86583230  0.22862212  0.17566100     0.14900
N2546       N  0.81955629  0.22152298  0.13877064     0.74000
O2547       O  0.94919840  0.27314786  0.09586094    -0.39500
O2548       O  0.93416604  0.30987514  0.12646377    -0.39400
O2549       O  0.82105405  0.19261720  0.13786035    -0.40100
O2550       O  0.79833968  0.23419099  0.15370191    -0.40200
C2551       C  0.59450492  0.26079363  0.11867687    -0.12500
C2552       C  0.60067350  0.24633309  0.14679438     0.04500
C2553       C  0.62979355  0.23309738  0.15149507    -0.07800
C2554       C  0.65197859  0.23510665  0.12856289    -0.08500
C2555       C  0.64583755  0.24959086  0.10045084    -0.03100
C2556       C  0.61658543  0.26249609  0.09560441     0.03800
N2557       N  0.60885667  0.27786911  0.06767743     0.66300
H2558       H  0.57247933  0.27138617  0.11465788     0.15200
H2559       H  0.67396126  0.22441687  0.13255034     0.14900
N2560       N  0.63684944  0.21606814  0.17864877     0.74000
O2561       O  0.59304892  0.26386554  0.04791795    -0.39500
O2562       O  0.61043376  0.30676961  0.06657600    -0.39400
O2563       O  0.63385366  0.18726727  0.17829325    -0.40100
O2564       O  0.65314573  0.22827395  0.19920272    -0.40200
C2565       C  0.65542234  0.25121631  0.36711044    -0.12500
C2566       C  0.64627301  0.24732460  0.39776091     0.04500
C2567       C  0.61482814  0.24371339  0.40403163    -0.07800
C2568       C  0.59372984  0.24524518  0.38007738    -0.08500
C2569       C  0.60286239  0.24921196  0.34946146    -0.03100
C2570       C  0.63434256  0.25200485  0.34309419     0.03800
N2571       N  0.64566065  0.25605619  0.31261393     0.66300
H2572       H  0.67929828  0.25363819  0.36142937     0.15200
H2573       H  0.56987240  0.24239800  0.38568010     0.14900
N2574       N  0.60362868  0.23700965  0.43412253     0.74000
O2575       O  0.65479638  0.28227087  0.30465141    -0.39500
O2576       O  0.65480208  0.23286204  0.29783457    -0.39400
O2577       O  0.58329876  0.25405085  0.44553264    -0.40100
O2578       O  0.60685915  0.21018355  0.44454451    -0.40200
C2579       C  0.87161174  0.23210639  0.34700942    -0.12500
C2580       C  0.89820235  0.24900281  0.35297821     0.04500
C2581       C  0.90079497  0.26432599  0.38150193    -0.07800
C2582       C  0.87698836  0.26295057  0.40286333    -0.08500
C2583       C  0.85034579  0.24619657  0.39688137    -0.03100
C2584       C  0.84802284  0.23026524  0.36865939     0.03800
N2585       N  0.82301223  0.21037202  0.36236437     0.66300
H2586       H  0.86941428  0.21949795  0.32563699     0.15200
H2587       H  0.87929408  0.27553504  0.42425185     0.14900
N2588       N  0.92664027  0.28278847  0.38871050     0.74000
O2589       O  0.80303702  0.21872053  0.34320947    -0.39500
O2590       O  0.82564112  0.18224082  0.36876286    -0.39400
O2591       O  0.92330581  0.31153086  0.39015553    -0.40100
O2592       O  0.94925129  0.27051713  0.40183675    -0.40200
C2593       C  0.87913737  0.34408882  0.50765053    -0.12500
C2594       C  0.85023851  0.35254759  0.00355746     0.04500
C2595       C  0.84462635  0.38436820  0.99980218    -0.07800
C2596       C  0.86887629  0.40521371  0.99981159    -0.08500
C2597       C  0.89922162  0.39571618  0.00425027    -0.03100
C2598       C  0.90286829  0.36557255  0.50902044     0.03800
N2599       N  0.93247724  0.35473429  0.51744616     0.66300
H2600       H  0.88464887  0.32018196  0.51175395     0.15200
H2601       H  0.86360923  0.42923296  0.99606894     0.14900
N2602       N  0.81459116  0.39631700  0.99561747     0.74000
O2603       O  0.94058809  0.35641063  0.54523677    -0.39500
O2604       O  0.94591351  0.33596500  0.50000066    -0.39400
O2605       O  0.80144598  0.40901449  0.01807640    -0.40100
O2606       O  0.80386686  0.40525586  0.46819352    -0.40200
C2607       C  0.86884639  0.09433781  0.00396111    -0.12500
C2608       C  0.89857325  0.10278185  0.99561955     0.04500
C2609       C  0.90180676  0.13113928  0.50894081    -0.07800
C2610       C  0.87835132  0.15295242  0.50782867    -0.08500
C2611       C  0.85077815  0.14697099  0.99818407    -0.03100
C2612       C  0.84523252  0.11590360  0.00569525     0.03800
N2613       N  0.81610249  0.10582528  0.01618179     0.66300
H2614       H  0.86380151  0.07074733  0.00972398     0.15200
H2615       H  0.88261220  0.17553638  0.51736815     0.14900
N2616       N  0.92971594  0.13940817  0.52370963     0.74000
O2617       O  0.79876459  0.09156440  0.99795985    -0.39500
O2618       O  0.81079113  0.10506687  0.04466109    -0.39400
O2619       O  0.94842441  0.15633861  0.50978858    -0.40100
O2620       O  0.93227189  0.13590610  0.55238439    -0.40200
C2621       C  0.65387779  0.37944784  0.01081378    -0.12500
C2622       C  0.64641065  0.35038407  0.99907751     0.04500
C2623       C  0.61525721  0.34455660  0.49122334    -0.07800
C2624       C  0.59313953  0.36751432  0.49348463    -0.08500
C2625       C  0.60204636  0.39760241  0.00239508    -0.03100
C2626       C  0.63217475  0.40288601  0.01271000     0.03800
N2627       N  0.64107878  0.43144930  0.02616529     0.66300
H2628       H  0.67667716  0.38398964  0.01925121     0.15200
H2629       H  0.57068176  0.36307222  0.48409368     0.14900
N2630       N  0.60700040  0.31652342  0.47652851     0.74000
O2631       O  0.63828756  0.43516619  0.05478731    -0.39500
O2632       O  0.65083174  0.44997665  0.51918281    -0.39400
O2633       O  0.59209831  0.29779855  0.99215594    -0.40100
O2634       O  0.60732755  0.31522742  0.44756065    -0.40200
C2635       C  0.59514708  0.12989281  0.01372178    -0.12500
C2636       C  0.60096799  0.10133331  0.00003476     0.04500
C2637       C  0.62718921  0.09767125  0.48313176    -0.07800
C2638       C  0.65303426  0.11772305  0.99033568    -0.08500
C2639       C  0.64701424  0.14676176  0.00305887    -0.03100
C2640       C  0.61768970  0.15251328  0.01529190     0.03800
N2641       N  0.61083184  0.18042473  0.03111469     0.66300
H2642       H  0.57310837  0.13453582  0.02394180     0.15200
H2643       H  0.67546448  0.11244198  0.98165248     0.14900
N2644       N  0.63167377  0.07161118  0.46353218     0.74000
O2645       O  0.59354657  0.20082966  0.51737711    -0.39500
O2646       O  0.61450610  0.18164738  0.05986258    -0.39400
O2647       O  0.61539027  0.06834278  0.43979643    -0.40100
O2648       O  0.65265912  0.04719112  0.98340799    -0.40200
C2649       C  0.87264371  0.01393020  0.40148181    -0.12500
C2650       C  0.89971463  0.99762412  0.39613533     0.04500
C2651       C  0.90319937  0.48254141  0.36921639    -0.07800
C2652       C  0.88010652  0.48293974  0.34691091    -0.08500
C2653       C  0.85301695  0.99927007  0.35121456    -0.03100
C2654       C  0.84937828  0.01479647  0.37952655     0.03800
N2655       N  0.82270050  0.03250416  0.38605482     0.66300
H2656       H  0.86959281  0.02647255  0.42280240     0.15200
H2657       H  0.88258473  0.46873167  0.32658997     0.14900
N2658       N  0.92891514  0.46270534  0.36508769     0.74000
O2659       O  0.80211329  0.02107883  0.40265318    -0.39500
O2660       O  0.82319644  0.06115375  0.38186259    -0.39400
O2661       O  0.93154133  0.43880718  0.38125444    -0.40100
O2662       O  0.95085638  0.47115326  0.34845907    -0.40200
C2663       C  0.59622096  0.50402977  0.37047331    -0.12500
C2664       C  0.60415518  0.99702317  0.39964329     0.04500
C2665       C  0.63314682  0.98325870  0.40376443    -0.07800
C2666       C  0.65510029  0.98508539  0.38040103    -0.08500
C2667       C  0.64897443  0.00026200  0.35257423    -0.03100
C2668       C  0.61798814  0.50630329  0.34709837     0.03800
N2669       N  0.60833793  0.51755476  0.31778505     0.66300
H2670       H  0.57292383  0.51017678  0.36506836     0.15200
H2671       H  0.67693197  0.97392096  0.38386687     0.14900
N2672       N  0.64041214  0.96623443  0.43086641     0.74000
O2673       O  0.59352991  0.50017367  0.30001394    -0.39500
O2674       O  0.61555288  0.06027527  0.32234466    -0.39400
O2675       O  0.64169870  0.44485020  0.43915900    -0.40100
O2676       O  0.65609497  0.97884619  0.45165074    -0.40200
C2677       C  0.61887878  0.48796028  0.15662894    -0.12500
C2678       C  0.64707464  0.99814932  0.14803257     0.04500
C2679       C  0.65049036  0.01191350  0.11889505    -0.07800
C2680       C  0.62675718  0.01072007  0.09748518    -0.08500
C2681       C  0.59907393  0.99616296  0.10418543    -0.03100
C2682       C  0.59490328  0.48721657  0.13532007     0.03800
N2683       N  0.56671739  0.47359591  0.14435154     0.66300
H2684       H  0.61518076  0.47824957  0.17923132     0.15200
H2685       H  0.62983795  0.02217252  0.07561423     0.14900
N2686       N  0.67698466  0.02918808  0.11127766     0.74000
O2687       O  0.54781914  0.48933803  0.15952060    -0.39500
O2688       O  0.56418112  0.44475238  0.14398669    -0.39400
O2689       O  0.69587573  0.01816647  0.09239460    -0.40100
O2690       O  0.67701347  0.05767699  0.11650820    -0.40200
C2691       C  0.84348482  0.00688321  0.11758378    -0.12500
C2692       C  0.85058398  0.99387826  0.14620625     0.04500
C2693       C  0.88143531  0.48505523  0.15310925    -0.07800
C2694       C  0.90318462  0.48603032  0.12970209    -0.08500
C2695       C  0.89478525  0.99660134  0.09878315    -0.03100
C2696       C  0.86495709  0.00806871  0.09391944     0.03800
N2697       N  0.85618587  0.02219642  0.06566066     0.66300
H2698       H  0.82117218  0.01685047  0.11358539     0.15200
H2699       H  0.92570020  0.47681088  0.13428754     0.14900
N2700       N  0.89011196  0.47226727  0.18207792     0.74000
O2701       O  0.84287087  0.51232825  0.04773732    -0.39500
O2702       O  0.85475038  0.05108627  0.06443455    -0.39400
O2703       O  0.89053941  0.44349427  0.18533395    -0.40100
O2704       O  0.90379612  0.97650636  0.19800476    -0.40200
C2705       C  0.51513012  0.12765164  0.40237295    -0.12500
C2706       C  0.49998195  0.09997278  0.39616672     0.04500
C2707       C  0.98599890  0.09580004  0.36673737    -0.07800
C2708       C  0.98660945  0.11969120  0.34526725    -0.08500
C2709       C  0.50135840  0.14767465  0.35197245    -0.03100
C2710       C  0.51614372  0.15128856  0.38063771     0.03800
N2711       N  0.53363741  0.17804178  0.38756061     0.66300
H2712       H  0.52681937  0.13081280  0.42411685     0.15200
H2713       H  0.97499277  0.11647889  0.32349474     0.14900
N2714       N  0.96994357  0.06831594  0.35908016     0.74000
O2715       O  0.52205064  0.19890335  0.40398176    -0.39500
O2716       O  0.56216491  0.17716792  0.38410633    -0.39400
O2717       O  0.94139260  0.06749936  0.36229194    -0.40100
O2718       O  0.98286034  0.04825413  0.34266385    -0.40200
C2719       C  0.51061929  0.40488109  0.36918295    -0.12500
C2720       C  0.49883195  0.39760494  0.39821534     0.04500
C2721       C  0.98608736  0.36906523  0.40217854    -0.07800
C2722       C  0.98850909  0.34661670  0.37939218    -0.08500
C2723       C  0.50194064  0.35268524  0.35134515    -0.03100
C2724       C  0.51214138  0.38294760  0.34580744     0.03800
N2725       N  0.52539226  0.39165803  0.31715678     0.66300
H2726       H  0.51928672  0.42768981  0.36460039     0.15200
H2727       H  0.97915588  0.32413445  0.38377641     0.14900
N2728       N  0.96970587  0.36214361  0.42959850     0.74000
O2729       O  0.50928804  0.40584510  0.29775746    -0.39500
O2730       O  0.55402306  0.39269948  0.31489169    -0.39400
O2731       O  0.94404317  0.37436778  0.43445646    -0.40100
O2732       O  0.98234447  0.34643560  0.45035118    -0.40200
C2733       C  0.98384805  0.40294418  0.12970568    -0.12500
C2734       C  0.50009586  0.39757078  0.10198156     0.04500
C2735       C  0.51439463  0.36893374  0.09710504    -0.07800
C2736       C  0.51287336  0.34634236  0.11978823    -0.08500
C2737       C  0.49832742  0.35218421  0.14793983    -0.03100
C2738       C  0.98305799  0.38063008  0.15260495     0.03800
N2739       N  0.96685086  0.38729882  0.18029712     0.66300
H2740       H  0.97180629  0.42440250  0.13336297     0.15200
H2741       H  0.52415649  0.32453536  0.11579797     0.14900
N2742       N  0.53208614  0.36317389  0.07010660     0.74000
O2743       O  0.93830455  0.38403077  0.18087358    -0.39500
O2744       O  0.97957884  0.40330667  0.20080342    -0.39400
O2745       O  0.55685495  0.37724995  0.06607586    -0.40100
O2746       O  0.52165854  0.34624349  0.04903655    -0.40200
C2747       C  0.98593749  0.12900075  0.09579500    -0.12500
C2748       C  0.49941971  0.10016046  0.10299110     0.04500
C2749       C  0.51132205  0.09527851  0.13283849    -0.07800
C2750       C  0.51011217  0.11891379  0.15456405    -0.08500
C2751       C  0.49688500  0.14744047  0.14750546    -0.03100
C2752       C  0.98406965  0.15223006  0.11788277     0.03800
N2753       N  0.96746949  0.17950620  0.11048141     0.66300
H2754       H  0.97584936  0.13298266  0.07338613     0.15200
H2755       H  0.51991761  0.11493696  0.17707291     0.14900
N2756       N  0.52521722  0.06681074  0.14145269     0.74000
O2757       O  0.98043343  0.20052065  0.09552556    -0.39500
O2758       O  0.93876489  0.17924079  0.11207802    -0.39400
O2759       O  0.55389178  0.06464201  0.14175939    -0.40100
O2760       O  0.50962629  0.04711041  0.15564551    -0.40200
O2761       O  0.49584800  0.04950199  0.58730128    -0.86700
O2762       O  0.49920094  0.04831225  0.91130952    -0.86900
O2763       O  0.54781434  0.08692851  0.49962975    -0.88500
O2764       O  0.94921559  0.08642526  0.49770683    -0.87300
O2765       O  0.91277004  0.04882412  0.49750565    -0.86900
O2766       O  0.58511017  0.04988649  0.49991725    -0.88200
O2767       O  0.49851286  0.08532395  0.94871593    -0.86700
O2768       O  0.49790319  0.08616347  0.54950478    -0.86300
Zr2769     Zr  0.49898599  0.06098095  0.49923223     2.84300
O2770       O  0.96963646  0.03036583  0.96773770    -1.08300
O2771       O  0.52983263  0.03089449  0.53126040    -1.09000
C2772       C  0.49636285  0.07757943  0.57792132     1.06400
C2773       C  0.49843708  0.07653819  0.92023710     1.06400
C2774       C  0.57588646  0.07807118  0.49939042     1.09300
C2775       C  0.92126340  0.07727975  0.49755503     1.07100
H2776       H  0.54387813  0.04342744  0.95616872     0.32700
O2777       O  0.53079653  0.03045753  0.96908816    -1.29200
H2778       H  0.95458710  0.04311189  0.54202609     0.32400
O2779       O  0.96764863  0.03051870  0.52983489    -1.30900
O2780       O  0.50047249  0.45053032  0.91300249    -0.86700
O2781       O  0.49530679  0.45098988  0.58785613    -0.88200
O2782       O  0.58753820  0.99847386  0.95185360    -0.86800
O2783       O  0.91401209  0.99926358  0.94824438    -0.86800
O2784       O  0.91143660  0.99864628  0.54755028    -0.86500
O2785       O  0.58478647  0.00041803  0.55134025    -0.86300
O2786       O  0.54812363  0.41211349  0.50344875    -0.86700
O2787       O  0.94959990  0.41192810  0.50192216    -0.86200
O2788       O  0.58563582  0.44853320  0.50534146    -0.87200
O2789       O  0.91305967  0.44955679  0.50117000    -0.86400
O2790       O  0.55105676  0.99918050  0.91407371    -0.86800
O2791       O  0.54768615  0.00046321  0.58837829    -0.86500
O2792       O  0.94794260  0.99850797  0.58523852    -0.86200
O2793       O  0.95144442  0.99872046  0.91149942    -0.86600
O2794       O  0.49985201  0.41305489  0.94994679    -0.86900
O2795       O  0.49741586  0.41356477  0.55061964    -0.88200
Zr2796     Zr  0.50050117  0.99929452  0.93773777     2.83900
Zr2797     Zr  0.49860041  0.99992552  0.56179070     2.83500
Zr2798     Zr  0.56117269  0.99957316  0.50087701     2.84100
Zr2799     Zr  0.93812038  0.99863406  0.49860458     2.83400
Zr2800     Zr  0.49853724  0.43782569  0.50076816     2.84200
O2801       O  0.96745283  0.46899275  0.53068509    -1.08800
O2802       O  0.53146125  0.46827176  0.96994260    -1.08300
C2803       C  0.49974366  0.42233828  0.92176081     1.06400
C2804       C  0.49630471  0.42284083  0.57872699     1.09000
C2805       C  0.57910074  0.99882319  0.92337664     1.06600
C2806       C  0.92321534  0.99888270  0.92011965     1.06900
C2807       C  0.91991242  0.99835984  0.57597376     1.06500
C2808       C  0.57580619  0.00043021  0.57957258     1.06100
C2809       C  0.57634984  0.42053142  0.50527341     1.06500
C2810       C  0.92152949  0.42101861  0.50228230     1.06000
H2811       H  0.54075006  0.45558240  0.54607269     0.32700
O2812       O  0.52879964  0.46828988  0.53278221    -1.29900
H2813       H  0.95747705  0.45495376  0.95620732     0.32700
O2814       O  0.97003475  0.46791083  0.96909672    -1.31200
O2815       O  0.50144352  0.20098405  0.66134290    -0.86700
O2816       O  0.50017333  0.20220730  0.83700085    -0.86900
O2817       O  0.54841190  0.16292683  0.74589797    -0.88500
O2818       O  0.94860216  0.16491349  0.74963426    -0.87300
O2819       O  0.91171272  0.20213671  0.75019654    -0.86900
O2820       O  0.58511149  0.20029216  0.74638219    -0.88200
O2821       O  0.49950936  0.16497464  0.79976778    -0.86700
O2822       O  0.49904086  0.16407459  0.69890033    -0.86300
Zr2823     Zr  0.49925106  0.18926998  0.74910806     2.84300
O2824       O  0.96895331  0.22028663  0.78025434    -1.08300
O2825       O  0.53009515  0.21997012  0.71807254    -1.09000
C2826       C  0.50050766  0.17280287  0.67054279     1.06400
C2827       C  0.49973667  0.17385830  0.82819065     1.06400
C2828       C  0.57646252  0.17188580  0.74527416     1.09300
C2829       C  0.92039736  0.17379840  0.75005603     1.07100
H2830       H  0.54360664  0.20718493  0.79277133     0.32700
O2831       O  0.53072322  0.21999102  0.78011456    -1.29200
H2832       H  0.95545689  0.20723628  0.70511682     0.32400
O2833       O  0.96833198  0.22007906  0.71786962    -1.30900
O2834       O  0.50046687  0.30241490  0.83512996    -0.86700
O2835       O  0.49879696  0.30076976  0.66149852    -0.88200
O2836       O  0.58741240  0.25201183  0.79773236    -0.86800
O2837       O  0.91506192  0.25175001  0.80091807    -0.86800
O2838       O  0.91276522  0.25064323  0.69920709    -0.86500
O2839       O  0.58702355  0.25020417  0.70002319    -0.86300
O2840       O  0.54865879  0.33929287  0.74754352    -0.86700
O2841       O  0.94969228  0.33840778  0.75016433    -0.86200
O2842       O  0.58516831  0.30165333  0.74791526    -0.87200
O2843       O  0.91264125  0.30131785  0.74857820    -0.86400
O2844       O  0.55060510  0.25302398  0.83495072    -0.86800
O2845       O  0.55015024  0.25031957  0.66268222    -0.86500
O2846       O  0.94953719  0.25088467  0.66167699    -0.86200
O2847       O  0.95211328  0.25232090  0.83810753    -0.86600
O2848       O  0.50063315  0.33947596  0.79776631    -0.86900
O2849       O  0.49617194  0.33805411  0.69880755    -0.88200
Zr2850     Zr  0.50030596  0.25182153  0.81092523     2.83100
Zr2851     Zr  0.49970558  0.25093469  0.68681103     2.83500
Zr2852     Zr  0.56092952  0.25110312  0.74875725     2.84100
Zr2853     Zr  0.93793171  0.25133237  0.74939664     2.83400
Zr2854     Zr  0.49939554  0.31332248  0.74858802     2.84200
O2855       O  0.96839253  0.28176436  0.71755099    -1.08800
O2856       O  0.53070251  0.28272374  0.77974034    -1.08300
C2857       C  0.50072878  0.33066804  0.82603030     1.06400
C2858       C  0.49675055  0.32893578  0.67061811     1.09000
C2859       C  0.57869454  0.25286207  0.82600142     1.06600
C2860       C  0.92397609  0.25215187  0.82937001     1.06900
C2861       C  0.92153356  0.25080962  0.67083588     1.06500
C2862       C  0.57827758  0.24998748  0.67178450     1.06100
C2863       C  0.57670218  0.33015784  0.74744243     1.06500
C2864       C  0.92163056  0.32953186  0.74960987     1.06000
H2865       H  0.54301865  0.29510878  0.70449258     0.32700
O2866       O  0.53042626  0.28237361  0.71744821    -1.29900
H2867       H  0.95649253  0.29535793  0.79307323     0.32700
O2868       O  0.96893445  0.28240484  0.78011144    -1.31200
O2869       O  0.83713510  0.50020408  0.70099418    -0.86700
O2870       O  0.66332130  0.50177415  0.70192498    -0.86900
O2871       O  0.74896099  0.45238187  0.66191765    -0.88500
O2872       O  0.75125604  0.05040639  0.66376960    -0.87300
O2873       O  0.75105769  0.08758306  0.70091638    -0.86900
O2874       O  0.74983856  0.41535668  0.69914424    -0.88200
O2875       O  0.69958493  0.50288851  0.66410434    -0.86700
O2876       O  0.79978336  0.50044334  0.66413737    -0.86300
Zr2877     Zr  0.74981598  0.50104160  0.68896882     2.84300
O2878       O  0.71925841  0.03103959  0.71825852    -1.08300
O2879       O  0.78132882  0.46991282  0.71929081    -1.09000
C2880       C  0.82802450  0.50026843  0.67280494     1.06400
C2881       C  0.67157834  0.50266326  0.67341421     1.06400
C2882       C  0.74905131  0.42413806  0.67067914     1.09300
C2883       C  0.75149533  0.07872688  0.67274277     1.07100
H2884       H  0.70649984  0.45728917  0.70722205     0.32700
O2885       O  0.71937015  0.46991990  0.71995977    -1.29200
H2886       H  0.79424385  0.04318546  0.70581988     0.32400
O2887       O  0.78123406  0.03065397  0.71846600    -1.30900
O2888       O  0.66427842  0.50151813  0.80175780    -0.86700
O2889       O  0.83799785  0.50063562  0.80027285    -0.88200
O2890       O  0.70228950  0.41231463  0.75127254    -0.86800
O2891       O  0.70078425  0.08769349  0.74849517    -0.86800
O2892       O  0.80068709  0.08545163  0.75022306    -0.86500
O2893       O  0.80053157  0.41397847  0.74848133    -0.86300
O2894       O  0.75305251  0.45206129  0.83900029    -0.86700
O2895       O  0.75060864  0.05043966  0.83569871    -0.86200
O2896       O  0.75273198  0.41527407  0.80129236    -0.87200
O2897       O  0.75115356  0.08754015  0.79843695    -0.86400
O2898       O  0.66555603  0.44975431  0.75184173    -0.86800
O2899       O  0.83740908  0.45125105  0.75036536    -0.86500
O2900       O  0.83751602  0.04823532  0.75036995    -0.86200
O2901       O  0.66355497  0.05086403  0.74732560    -0.86600
O2902       O  0.70170415  0.50093212  0.83864263    -0.86900
O2903       O  0.80146036  0.50198281  0.83789391    -0.88200
Zr2904     Zr  0.68917853  0.50084952  0.75164139     2.83100
Zr2905     Zr  0.81208285  0.50079578  0.75061764     2.83500
Zr2906     Zr  0.75090335  0.43904141  0.75041825     2.84100
Zr2907     Zr  0.75027595  0.06149793  0.74954819     2.83400
Zr2908     Zr  0.75143220  0.50103688  0.81284090     2.84200
O2909       O  0.78075498  0.03076700  0.78102616    -1.08800
O2910       O  0.72038339  0.46977396  0.78220438    -1.08300
C2911       C  0.67342221  0.50136453  0.83001968     1.06400
C2912       C  0.82946763  0.50144135  0.82866224     1.09000
C2913       C  0.67422227  0.42125272  0.75147091     1.06600
C2914       C  0.67258174  0.07913192  0.74753320     1.06900
C2915       C  0.82886737  0.07655507  0.75036359     1.06500
C2916       C  0.82851419  0.42309766  0.74907097     1.06100
C2917       C  0.75346134  0.42393910  0.82978381     1.06500
C2918       C  0.75124957  0.07863622  0.82661307     1.06000
H2919       H  0.79485385  0.45700882  0.79428248     0.32700
O2920       O  0.78186328  0.46973963  0.78165816    -1.29900
H2921       H  0.70611420  0.04449707  0.79296702     0.32700
O2922       O  0.71874875  0.03135570  0.78038425    -1.31200
O2923       O  0.69917728  0.16182608  0.00092171    -0.86700
O2924       O  0.69837310  0.33534299  0.99892886    -0.86900
O2925       O  0.66158976  0.25054774  0.54876164    -0.88500
O2926       O  0.66186743  0.24786447  0.94992581    -0.87300
O2927       O  0.69890558  0.24884440  0.91295500    -0.86900
O2928       O  0.69876093  0.24981999  0.58583544    -0.88200
O2929       O  0.66165234  0.29805967  0.99825939    -0.86700
O2930       O  0.66227455  0.19909381  0.00172852    -0.86300
Zr2931     Zr  0.68745156  0.24878826  0.99928835     2.84300
O2932       O  0.71787793  0.28016990  0.96836292    -1.08300
O2933       O  0.71739699  0.21746335  0.53101307    -1.09000
C2934       C  0.67106192  0.17079035  0.00208844     1.06400
C2935       C  0.67032263  0.32630511  0.99845524     1.06400
C2936       C  0.67059481  0.25082069  0.57694597     1.09300
C2937       C  0.67075505  0.24808077  0.92172325     1.07100
H2938       H  0.70502442  0.29253231  0.54350015     0.32700
O2939       O  0.71765662  0.27966677  0.53065305    -1.29200
H2940       H  0.70521403  0.20496774  0.95533976     0.32400
O2941       O  0.71795091  0.21782915  0.96799510    -1.30900
O2942       O  0.79753463  0.33758647  0.00174890    -0.86700
O2943       O  0.79843473  0.16197837  0.99869189    -0.88200
O2944       O  0.74919567  0.29821576  0.58739467    -0.86800
O2945       O  0.74926106  0.29870069  0.91194802    -0.86800
O2946       O  0.74868587  0.19921976  0.91266444    -0.86500
O2947       O  0.74968633  0.19851177  0.58554486    -0.86300
O2948       O  0.83559130  0.24866971  0.54915389    -0.86700
O2949       O  0.83510660  0.24945988  0.94935682    -0.86200
O2950       O  0.79888298  0.24763707  0.58668920    -0.87200
O2951       O  0.79849965  0.24826750  0.91174219    -0.86400
O2952       O  0.74791532  0.33517200  0.55008064    -0.86800
O2953       O  0.74961781  0.16126569  0.54844907    -0.86500
O2954       O  0.74792494  0.16182497  0.94966553    -0.86200
O2955       O  0.74917927  0.33568956  0.94944685    -0.86600
O2956       O  0.83434545  0.30024610  0.00137476    -0.86900
O2957       O  0.83516023  0.19926901  0.99954442    -0.88200
Zr2958     Zr  0.74850485  0.31103985  0.99979724     2.83100
Zr2959     Zr  0.74883227  0.18727079  0.99929298     2.83500
Zr2960     Zr  0.74888347  0.24868738  0.56134118     2.84100
Zr2961     Zr  0.74898605  0.24913414  0.93758943     2.83400
Zr2962     Zr  0.81034468  0.24950789  0.99983079     2.84200
O2963       O  0.77989219  0.21822700  0.96860491    -1.08800
O2964       O  0.77917887  0.27991422  0.53032831    -1.08300
C2965       C  0.82567236  0.32869785  0.00215426     1.06400
C2966       C  0.82647789  0.17090459  0.99897509     1.09000
C2967       C  0.74850122  0.32648606  0.57853459     1.06600
C2968       C  0.74949053  0.32692869  0.92101458     1.06900
C2969       C  0.74797803  0.17093949  0.92148032     1.06500
C2970       C  0.75024970  0.17021363  0.57662952     1.06100
C2971       C  0.82694878  0.24788991  0.57755526     1.06500
C2972       C  0.82657416  0.24882992  0.92082552     1.06000
H2973       H  0.79226986  0.20478205  0.54256290     0.32700
O2974       O  0.77934520  0.21766173  0.53001495    -1.29900
H2975       H  0.79239332  0.29325750  0.95601224     0.32700
O2976       O  0.77966507  0.28042745  0.96864119    -1.31200
C2977       C  0.75397666  0.09339614  0.61785863    -0.12500
C2978       C  0.75235994  0.10268295  0.64870335     0.04500
C2979       C  0.75141520  0.13448732  0.65550828    -0.07800
C2980       C  0.75086959  0.15575469  0.63166834    -0.08500
C2981       C  0.75171381  0.14641499  0.60079707    -0.03100
C2982       C  0.75389618  0.11469275  0.59405368     0.03800
N2983       N  0.75653817  0.10339494  0.56332960     0.66300
H2984       H  0.75534096  0.06927990  0.61185769     0.15200
H2985       H  0.74966352  0.17987705  0.63765957     0.14900
N2986       N  0.75087396  0.14593207  0.68631460     0.74000
O2987       O  0.78257725  0.09665279  0.55306373    -0.39500
O2988       O  0.73319945  0.09309765  0.54987752    -0.39400
O2989       O  0.77560191  0.15352270  0.69904187    -0.40100
O2990       O  0.72607666  0.15566236  0.69730644    -0.40200
C2991       C  0.74676217  0.38195759  0.59325951    -0.12500
C2992       C  0.74822750  0.35107417  0.60256142     0.04500
C2993       C  0.74932738  0.34476968  0.63449172    -0.07800
C2994       C  0.74923070  0.36884974  0.65578659    -0.08500
C2995       C  0.74823005  0.39971305  0.64652646    -0.03100
C2996       C  0.74672783  0.40607493  0.61458565     0.03800
N2997       N  0.74476564  0.43671635  0.60304114     0.66300
H2998       H  0.74555623  0.38773287  0.56907500     0.15200
H2999       H  0.75004515  0.36302774  0.67996228     0.14900
N3000       N  0.75074950  0.31414485  0.64609601     0.74000
O3001       O  0.71882636  0.44827346  0.59811881    -0.39500
O3002       O  0.76778394  0.44846549  0.59036701    -0.39400
O3003       O  0.77604413  0.30359162  0.65507065    -0.40100
O3004       O  0.72651230  0.30129828  0.65475290    -0.40200
C3005       C  0.74579472  0.36965748  0.84465626    -0.12500
C3006       C  0.75413147  0.39944814  0.85345168     0.04500
C3007       C  0.76172586  0.40495041  0.88460869    -0.07800
C3008       C  0.75983596  0.38106521  0.90596841    -0.08500
C3009       C  0.75091383  0.35134798  0.89721278    -0.03100
C3010       C  0.74401753  0.34583943  0.86594076     0.03800
N3011       N  0.73312484  0.31685140  0.85541198     0.66300
H3012       H  0.73973528  0.36473763  0.82103915     0.15200
H3013       H  0.76553632  0.38593386  0.92964997     0.14900
N3014       N  0.77199209  0.43429896  0.89506237     0.74000
O3015       O  0.70477360  0.31320768  0.85258897    -0.39500
O3016       O  0.75091991  0.29946970  0.84067344    -0.39400
O3017       O  0.75416407  0.45105037  0.91048131    -0.40100
O3018       O  0.80019370  0.43985529  0.89558591    -0.40200
C3019       C  0.73775485  0.09564557  0.87889997    -0.12500
C3020       C  0.75113575  0.10249138  0.85054514     0.04500
C3021       C  0.76260151  0.13227995  0.84537643    -0.07800
C3022       C  0.76046372  0.15433158  0.86853592    -0.08500
C3023       C  0.74785977  0.14725388  0.89720977    -0.03100
C3024       C  0.73585266  0.11767009  0.90204426     0.03800
N3025       N  0.71849356  0.11060164  0.92873458     0.66300
H3026       H  0.72764436  0.07332455  0.88286889     0.15200
H3027       H  0.76900466  0.17710102  0.86416700     0.14900
N3028       N  0.77761987  0.14022317  0.81738430     0.74000
O3029       O  0.68994091  0.11365225  0.92737568    -0.39500
O3030       O  0.73000560  0.09366280  0.94922005    -0.39400
O3031       O  0.76431188  0.15739337  0.79823722    -0.40100
O3032       O  0.80590753  0.13564325  0.81494860    -0.40200
C3033       C  0.90562783  0.11839394  0.74995071    -0.12500
C3034       C  0.89646778  0.14936466  0.75027916     0.04500
C3035       C  0.86478545  0.15585742  0.75041280    -0.07800
C3036       C  0.84362986  0.13187421  0.75064367    -0.08500
C3037       C  0.85278840  0.10093636  0.75039175    -0.03100
C3038       C  0.88443567  0.09441471  0.74978548     0.03800
N3039       N  0.89578840  0.06371671  0.74786070     0.66300
H3040       H  0.92960150  0.11243412  0.74943310     0.15200
H3041       H  0.81965005  0.13782882  0.75074495     0.14900
N3042       N  0.85327771  0.18654968  0.74970681     0.74000
O3043       O  0.90345474  0.05321504  0.72196467    -0.39500
O3044       O  0.90525810  0.05058271  0.77189414    -0.39400
O3045       O  0.84408531  0.19744961  0.72447862    -0.40100
O3046       O  0.84455961  0.19887034  0.77444010    -0.40200
C3047       C  0.87655508  0.40131981  0.76954707    -0.12500
C3048       C  0.85241437  0.39941374  0.74854584     0.04500
C3049       C  0.85107010  0.37458573  0.72785522    -0.07800
C3050       C  0.87353012  0.35168752  0.72887542    -0.08500
C3051       C  0.89784216  0.35358170  0.74986644    -0.03100
C3052       C  0.89915013  0.37864494  0.77045586     0.03800
N3053       N  0.92228944  0.38059625  0.79351771     0.66300
H3054       H  0.87749656  0.42015657  0.78583737     0.15200
H3055       H  0.87247423  0.33282506  0.71263562     0.14900
N3056       N  0.82770497  0.37312254  0.70493811     0.74000
O3057       O  0.94468321  0.39816133  0.78929239    -0.39500
O3058       O  0.91649509  0.37143478  0.82037321    -0.39400
O3059       O  0.82658129  0.39316620  0.68403667    -0.40100
O3060       O  0.80566046  0.35494683  0.70839124    -0.40200
C3061       C  0.62935865  0.15485458  0.75749974    -0.12500
C3062       C  0.60092246  0.14799247  0.74429267     0.04500
C3063       C  0.59664009  0.11842806  0.73138451    -0.07800
C3064       C  0.62034207  0.09670630  0.73237825    -0.08500
C3065       C  0.64852310  0.10340378  0.74628810    -0.03100
C3066       C  0.65280576  0.13299099  0.75896383     0.03800
N3067       N  0.67990991  0.14065815  0.77547446     0.66300
H3068       H  0.63317460  0.17712459  0.76793944     0.15200
H3069       H  0.61654367  0.07431971  0.72218509     0.14900
N3070       N  0.56865357  0.11001493  0.71679345     0.74000
O3071       O  0.70002996  0.15671443  0.76256683    -0.39500
O3072       O  0.68021609  0.13804183  0.80435251    -0.39400
O3073       O  0.56758887  0.10827508  0.68785366    -0.40100
O3074       O  0.54833268  0.09687047  0.73242051    -0.40200
C3075       C  0.63166519  0.34438004  0.75202015    -0.12500
C3076       C  0.60135735  0.35383187  0.74727830     0.04500
C3077       C  0.59568578  0.38555713  0.74293981    -0.07800
C3078       C  0.61956392  0.40671084  0.74532593    -0.08500
C3079       C  0.64981111  0.39732724  0.75054085    -0.03100
C3080       C  0.65571399  0.36542465  0.75333352     0.03800
N3081       N  0.68587902  0.35357073  0.75704779     0.66300
H3082       H  0.63706616  0.32024442  0.75455159     0.15200
H3083       H  0.61429075  0.43077040  0.74185360     0.14900
N3084       N  0.56641119  0.39683705  0.73393908     0.74000
O3085       O  0.69536553  0.34736600  0.78371233    -0.39500
O3086       O  0.69900929  0.34155709  0.73420452    -0.39400
O3087       O  0.55256963  0.41519518  0.75147792    -0.40100
O3088       O  0.55925545  0.39617618  0.70584716    -0.40200
C3089       C  0.87723641  0.26620599  0.59717535    -0.12500
C3090       C  0.85126908  0.24782087  0.60139970     0.04500
C3091       C  0.84896620  0.23012811  0.62850308    -0.07800
C3092       C  0.87183777  0.23180869  0.65097282    -0.08500
C3093       C  0.89750155  0.25044889  0.64689959    -0.03100
C3094       C  0.90017521  0.26772183  0.61964190     0.03800
N3095       N  0.92542513  0.28788693  0.61508683     0.66300
H3096       H  0.87936800  0.28011317  0.57666040     0.15200
H3097       H  0.86996684  0.21769699  0.67135059     0.14900
N3098       N  0.82464378  0.20882108  0.63273959     0.74000
O3099       O  0.94735483  0.27957749  0.59828785    -0.39500
O3100       O  0.92770490  0.31203016  0.63098382    -0.39400
O3101       O  0.82762666  0.18177016  0.62273929    -0.40100
O3102       O  0.80448194  0.21443607  0.65260611    -0.40200
C3103       C  0.59535229  0.26227063  0.61892531    -0.12500
C3104       C  0.60230875  0.25011035  0.64793495     0.04500
C3105       C  0.63222327  0.23917045  0.65355693    -0.07800
C3106       C  0.65393741  0.23997702  0.63018148    -0.08500
C3107       C  0.64687240  0.25176159  0.60106338    -0.03100
C3108       C  0.61723801  0.26351848  0.59570105     0.03800
N3109       N  0.60909158  0.27784367  0.56732228     0.66300
H3110       H  0.57286927  0.27155904  0.61431070     0.15200
H3111       H  0.67645377  0.23081146  0.63486949     0.14900
N3112       N  0.64100126  0.22647504  0.68253233     0.74000
O3113       O  0.59357106  0.26291915  0.54801617    -0.39500
O3114       O  0.60988340  0.30674107  0.56544118    -0.39400
O3115       O  0.64222295  0.19768505  0.68547992    -0.40100
O3116       O  0.65505691  0.24318433  0.70153855    -0.40200
C3117       C  0.65490324  0.25784394  0.86778088    -0.12500
C3118       C  0.64696330  0.24814587  0.89742753     0.04500
C3119       C  0.61629592  0.24014042  0.90325379    -0.07800
C3120       C  0.59459941  0.24268812  0.87985253    -0.08500
C3121       C  0.60252330  0.25257259  0.85025965    -0.03100
C3122       C  0.63312896  0.26068952  0.84449539     0.03800
N3123       N  0.64224700  0.27400265  0.81599458     0.66300
H3124       H  0.67817111  0.26398642  0.86266787     0.15200
H3125       H  0.57135302  0.23639643  0.88488068     0.14900
N3126       N  0.60681768  0.22814215  0.93226238     0.74000
O3127       O  0.64091469  0.30278184  0.81304543    -0.39500
O3128       O  0.65865826  0.25862254  0.79780622    -0.39400
O3129       O  0.58943284  0.24395394  0.94910277    -0.40100
O3130       O  0.60955508  0.19975998  0.93737383    -0.40200
C3131       C  0.87057700  0.24140591  0.84504459    -0.12500
C3132       C  0.89969642  0.25169335  0.85343191     0.04500
C3133       C  0.90432653  0.26122753  0.88424296    -0.07800
C3134       C  0.88031457  0.25984138  0.90546218    -0.08500
C3135       C  0.85115371  0.24949479  0.89701076    -0.03100
C3136       C  0.84653426  0.24036151  0.86611171     0.03800
N3137       N  0.81810530  0.22852783  0.85561181     0.66300
H3138       H  0.86623798  0.23376977  0.82175366     0.15200
H3139       H  0.88456539  0.26761042  0.92874843     0.14900
N3140       N  0.93236342  0.27450453  0.89420032     0.74000
O3141       O  0.79893294  0.24682891  0.84406077    -0.39500
O3142       O  0.81674944  0.20048232  0.84855393    -0.39400
O3143       O  0.93261680  0.30267380  0.90093445    -0.40100
O3144       O  0.95272370  0.25730307  0.90533226    -0.40200
C3145       C  0.88051257  0.34309614  0.00876266    -0.12500
C3146       C  0.84879354  0.35293111  0.50214473     0.04500
C3147       C  0.84258913  0.38468910  0.49831261    -0.07800
C3148       C  0.86648539  0.40605845  0.49852696    -0.08500
C3149       C  0.89693645  0.39712506  0.50350933    -0.03100
C3150       C  0.90472475  0.36407001  0.00955673     0.03800
N3151       N  0.93442377  0.35257139  0.01671227     0.66300
H3152       H  0.88565308  0.31908290  0.01272624     0.15200
H3153       H  0.86089713  0.43000356  0.49477703     0.14900
N3154       N  0.81224868  0.39601349  0.49434851     0.74000
O3155       O  0.94286943  0.35194022  0.04444441    -0.39500
O3156       O  0.94755383  0.33521204  0.99764259    -0.39400
O3157       O  0.79718419  0.40399884  0.51772322    -0.40100
O3158       O  0.80557173  0.40228975  0.96874819    -0.40200
C3159       C  0.86821915  0.09394918  0.48518785    -0.12500
C3160       C  0.89698465  0.10119557  0.49729690     0.04500
C3161       C  0.90406097  0.13381416  0.98777694    -0.07800
C3162       C  0.88033356  0.15534421  0.98912396    -0.08500
C3163       C  0.84948781  0.14571982  0.49589245    -0.03100
C3164       C  0.84460036  0.11565775  0.48448636     0.03800
N3165       N  0.81598566  0.10660517  0.47181718     0.66300
H3166       H  0.86395249  0.07123641  0.47594892     0.15200
H3167       H  0.88516792  0.17882314  0.98258552     0.14900
N3168       N  0.93313575  0.14385300  0.97711542     0.74000
O3169       O  0.81204583  0.10811741  0.44312328    -0.39500
O3170       O  0.79876494  0.08968475  0.48756930    -0.39400
O3171       O  0.93758550  0.14610852  0.94856937    -0.40100
O3172       O  0.95066418  0.15777836  0.99541338    -0.40200
C3173       C  0.65171297  0.37818787  0.51601120    -0.12500
C3174       C  0.64517081  0.34983738  0.50214612     0.04500
C3175       C  0.61620916  0.34500802  0.98908101    -0.07800
C3176       C  0.59452793  0.36845944  0.99088724    -0.08500
C3177       C  0.59993167  0.39616906  0.50633154    -0.03100
C3178       C  0.62950341  0.40119794  0.51836012     0.03800
N3179       N  0.63725938  0.42910694  0.53379558     0.66300
H3180       H  0.67416752  0.38250249  0.52545863     0.15200
H3181       H  0.57170844  0.36384849  0.98254540     0.14900
N3182       N  0.60719690  0.31632377  0.97601358     0.74000
O3183       O  0.63718346  0.42984732  0.56279110    -0.39500
O3184       O  0.65838957  0.44910315  0.01134780    -0.39400
O3185       O  0.59141546  0.29729793  0.49132454    -0.40100
O3186       O  0.60706296  0.31330520  0.94716974    -0.40200
C3187       C  0.59418013  0.12991606  0.51407710    -0.12500
C3188       C  0.59936856  0.10218415  0.49859412     0.04500
C3189       C  0.63014682  0.09553733  0.98770782    -0.07800
C3190       C  0.65005336  0.11992613  0.48534839    -0.08500
C3191       C  0.64505169  0.14779002  0.50081301    -0.03100
C3192       C  0.61640969  0.15284252  0.51488170     0.03800
N3193       N  0.60957976  0.18076428  0.53070372     0.66300
H3194       H  0.57280111  0.13377936  0.52592144     0.15200
H3195       H  0.67148982  0.11597003  0.47405769     0.14900
N3196       N  0.63648199  0.06783075  0.97121409     0.74000
O3197       O  0.59440731  0.20035650  0.01808527    -0.39500
O3198       O  0.61243614  0.18178428  0.55954620    -0.39400
O3199       O  0.62398973  0.06298466  0.94550242    -0.40100
O3200       O  0.64935379  0.05023988  0.47169930    -0.40200
C3201       C  0.87192325  0.01501312  0.90200870    -0.12500
C3202       C  0.89909532  0.99891284  0.89625267     0.04500
C3203       C  0.90320691  0.48183759  0.87008634    -0.07800
C3204       C  0.88009220  0.48317351  0.84777790    -0.08500
C3205       C  0.85141297  0.99986977  0.85225418    -0.03100
C3206       C  0.84828771  0.01576425  0.88038931     0.03800
N3207       N  0.82212382  0.03431189  0.88671167     0.66300
H3208       H  0.86920072  0.02772040  0.92327319     0.15200
H3209       H  0.88236522  0.46947274  0.82709150     0.14900
N3210       N  0.92890421  0.46214304  0.86522214     0.74000
O3211       O  0.80167714  0.02413039  0.90426942    -0.39500
O3212       O  0.82312777  0.06272096  0.88118057    -0.39400
O3213       O  0.93216303  0.43826102  0.88130306    -0.40100
O3214       O  0.95032631  0.47077775  0.84801372    -0.40200
C3215       C  0.59837175  0.51233028  0.87302255    -0.12500
C3216       C  0.60314211  0.99967948  0.89923312     0.04500
C3217       C  0.63299102  0.98826211  0.90399244    -0.07800
C3218       C  0.65444991  0.98952010  0.88023470    -0.08500
C3219       C  0.64718947  0.00209997  0.85140044    -0.03100
C3220       C  0.62050271  0.51434428  0.84999602     0.03800
N3221       N  0.61339632  0.53153899  0.82298862     0.66300
H3222       H  0.57640875  0.52307398  0.86907725     0.15200
H3223       H  0.67693271  0.98001281  0.88436129     0.14900
N3224       N  0.64189641  0.97449477  0.93241030     0.74000
O3225       O  0.59753526  0.51926942  0.80213101    -0.39500
O3226       O  0.60887726  0.05828621  0.81814916    -0.39400
O3227       O  0.64002688  0.44032270  0.93442309    -0.40100
O3228       O  0.65794788  0.98976851  0.95098646    -0.40200
C3229       C  0.61766297  0.49179205  0.65802305    -0.12500
C3230       C  0.64844324  0.00157041  0.64652937     0.04500
C3231       C  0.65254530  0.01391118  0.61680551    -0.07800
C3232       C  0.62846357  0.01348889  0.59572939    -0.08500
C3233       C  0.60009732  0.00067853  0.60326586    -0.03100
C3234       C  0.59366262  0.49065541  0.63667043     0.03800
N3235       N  0.56481090  0.47926039  0.64659641     0.66300
H3236       H  0.61341072  0.48384951  0.68120580     0.15200
H3237       H  0.63203722  0.02356086  0.57326302     0.14900
N3238       N  0.68064229  0.02762479  0.60766918     0.74000
O3239       O  0.54619960  0.49740879  0.65925362    -0.39500
O3240       O  0.56112887  0.45069541  0.64952351    -0.39400
O3241       O  0.69777664  0.01336949  0.58923908    -0.40100
O3242       O  0.68426156  0.05612020  0.61134879    -0.40200
C3243       C  0.84393334  0.00517672  0.61809396    -0.12500
C3244       C  0.85202468  0.99589509  0.64795368     0.04500
C3245       C  0.88225302  0.49207798  0.65383491    -0.07800
C3246       C  0.90349531  0.49337459  0.63002605    -0.08500
C3247       C  0.89592882  0.99755203  0.60008423    -0.03100
C3248       C  0.86530409  0.00603698  0.59432064     0.03800
N3249       N  0.85544046  0.01643479  0.56478173     0.66300
H3250       H  0.82082504  0.01244876  0.61306966     0.15200
H3251       H  0.92661361  0.48601257  0.63487505     0.14900
N3252       N  0.89211613  0.48035365  0.68288471     0.74000
O3253       O  0.83979850  0.50501251  0.54827503    -0.39500
O3254       O  0.85566825  0.04480074  0.55895214    -0.39400
O3255       O  0.89431490  0.45169342  0.68644240    -0.40100
O3256       O  0.90859053  0.99165064  0.69978193    -0.40200
C3257       C  0.50433295  0.13125154  0.90506524    -0.12500
C3258       C  0.49801652  0.10094893  0.89622382     0.04500
C3259       C  0.00266355  0.09419824  0.86386214    -0.07800
C3260       C  0.00246556  0.11820447  0.84252208    -0.08500
C3261       C  0.49921626  0.14935421  0.85222338    -0.03100
C3262       C  0.50494633  0.15520519  0.88373515     0.03800
N3263       N  0.51182312  0.18517326  0.89490277     0.66300
H3264       H  0.50920520  0.13664936  0.92889203     0.15200
H3265       H  0.00351844  0.11231322  0.81834573     0.14900
N3266       N  0.00442953  0.06351958  0.85233458     0.74000
O3267       O  0.49107086  0.20013899  0.90820714    -0.39500
O3268       O  0.53921057  0.19173061  0.90061938    -0.39400
O3269       O  0.98073851  0.05110755  0.84159591    -0.40100
O3270       O  0.03012936  0.05264121  0.84523855    -0.40200
C3271       C  0.51278905  0.40562805  0.86912219    -0.12500
C3272       C  0.49889477  0.39906736  0.89727128     0.04500
C3273       C  0.98867215  0.36865075  0.90256474    -0.07800
C3274       C  0.99033163  0.34668727  0.87923648    -0.08500
C3275       C  0.50044741  0.35469509  0.85005923    -0.03100
C3276       C  0.51342661  0.38395493  0.84553511     0.03800
N3277       N  0.52772392  0.39215485  0.81737470     0.66300
H3278       H  0.52367520  0.42762325  0.86543540     0.15200
H3279       H  0.98207920  0.32381849  0.88381731     0.14900
N3280       N  0.97447981  0.36063475  0.93092286     0.74000
O3281       O  0.51426394  0.41086805  0.79987282    -0.39500
O3282       O  0.55605672  0.38809435  0.81453854    -0.39400
O3283       O  0.94918918  0.37246818  0.93813887    -0.40100
O3284       O  0.98884218  0.34453197  0.95020248    -0.40200
C3285       C  0.97792892  0.40122529  0.62669580    -0.12500
C3286       C  0.49676399  0.39913177  0.60233263     0.04500
C3287       C  0.51778880  0.37473790  0.60072394    -0.07800
C3288       C  0.51681022  0.35145865  0.62270516    -0.08500
C3289       C  0.49573964  0.35280072  0.64689060    -0.03100
C3290       C  0.97717672  0.37840171  0.64911498     0.03800
N3291       N  0.95578842  0.38127933  0.67367975     0.66300
H3292       H  0.96227344  0.42045843  0.62830642     0.15200
H3293       H  0.53331289  0.33292745  0.62159430     0.14900
N3294       N  0.54128475  0.37442951  0.57794963     0.74000
O3295       O  0.92848112  0.37342966  0.66923783    -0.39500
O3296       O  0.96207248  0.39851607  0.69613421    -0.39400
O3297       O  0.56184230  0.39463754  0.57856354    -0.40100
O3298       O  0.53898990  0.35697868  0.55489783    -0.40200
C3299       C  0.01486714  0.12710543  0.59742723    -0.12500
C3300       C  0.49629029  0.10196571  0.60154580     0.04500
C3301       C  0.47880757  0.09989998  0.62869013    -0.07800
C3302       C  0.48077657  0.12311173  0.65091088    -0.08500
C3303       C  0.50003574  0.14845821  0.64678687    -0.03100
C3304       C  0.01732394  0.14977545  0.62004359     0.03800
N3305       N  0.04020846  0.17278459  0.61672193     0.66300
H3306       H  0.02948831  0.12835797  0.57741373     0.15200
H3307       H  0.46675471  0.12153332  0.67132643     0.14900
N3308       N  0.45822399  0.07501015  0.63365127     0.74000
O3309       O  0.06679351  0.16727159  0.62638474    -0.39500
O3310       O  0.03615814  0.19421706  0.59766861    -0.39400
O3311       O  0.46512702  0.05437875  0.65278399    -0.40100
O3312       O  0.43096021  0.07745825  0.62470262    -0.40200
O3313       O  0.50165766  0.54881695  0.08831992    -0.86700
O3314       O  0.50309037  0.54782663  0.41184529    -0.86900
O3315       O  0.54917190  0.58672088  0.00110858    -0.88500
O3316       O  0.95046435  0.58654787  0.00013408    -0.87300
O3317       O  0.91390332  0.54918350  0.99927902    -0.86900
O3318       O  0.58595280  0.54919570  0.00258781    -0.88200
O3319       O  0.50195929  0.58511397  0.44905525    -0.86700
O3320       O  0.50220233  0.58560015  0.05070096    -0.86300
Zr3321     Zr  0.49990319  0.56121134  0.00035552     2.84300
O3322       O  0.96929464  0.53069953  0.46818390    -1.08300
O3323       O  0.53002991  0.53039993  0.03223364    -1.09000
C3324       C  0.50282286  0.57692367  0.07909642     1.06400
C3325       C  0.50276829  0.57610181  0.42070422     1.06400
C3326       C  0.57715305  0.57749947  0.00193969     1.09300
C3327       C  0.92244069  0.57761290  0.99964442     1.07100
H3328       H  0.54532394  0.54176548  0.45731571     0.32700
O3329       O  0.53208014  0.52964670  0.46987834    -1.29200
H3330       H  0.95578936  0.54338690  0.04371698     0.32400
O3331       O  0.96853989  0.53059798  0.03123515    -1.30900
O3332       O  0.50202862  0.94840377  0.41375967    -0.86700
O3333       O  0.49742812  0.94932189  0.08648181    -0.88200
O3334       O  0.58815318  0.49520407  0.45322835    -0.86800
O3335       O  0.91385976  0.50075171  0.44847792    -0.86800
O3336       O  0.91199006  0.49919854  0.04854501    -0.86500
O3337       O  0.58428208  0.49936121  0.05310827    -0.86300
O3338       O  0.54996970  0.91335999  0.00089601    -0.86700
O3339       O  0.95064925  0.91154854  0.00110077    -0.86200
O3340       O  0.58685802  0.95044011  0.00189200    -0.87200
O3341       O  0.91400291  0.94905038  0.99998722    -0.86400
O3342       O  0.55186473  0.49610221  0.41532926    -0.86800
O3343       O  0.54709595  0.49833968  0.08996989    -0.86500
O3344       O  0.94837667  0.49929150  0.08639535    -0.86200
O3345       O  0.95167883  0.49987244  0.41208456    -0.86600
O3346       O  0.50110867  0.91165133  0.45147841    -0.86900
O3347       O  0.49968933  0.91212463  0.04917723    -0.88200
Zr3348     Zr  0.50124314  0.49897793  0.43866759     2.83900
Zr3349     Zr  0.49878029  0.49939403  0.06251227     2.83500
Zr3350     Zr  0.56124317  0.49931883  0.00198960     2.84100
Zr3351     Zr  0.93884235  0.49890565  0.99978615     2.83400
Zr3352     Zr  0.49970672  0.93773087  0.99978560     2.84200
O3353       O  0.96809612  0.96840172  0.03004850    -1.08800
O3354       O  0.53149182  0.96785192  0.46960425    -1.08300
C3355       C  0.50168409  0.92036806  0.42320913     1.06400
C3356       C  0.49874069  0.92116286  0.07739309     1.09000
C3357       C  0.57988239  0.49499629  0.42466260     1.06600
C3358       C  0.92344986  0.50031742  0.42045589     1.06900
C3359       C  0.92040186  0.49921177  0.07697364     1.06500
C3360       C  0.57520624  0.49873970  0.08137222     1.06100
C3361       C  0.57808555  0.92223976  0.00178391     1.06500
C3362       C  0.92255201  0.92057506  0.00120335     1.06000
H3363       H  0.54223617  0.95542246  0.04447648     0.32700
O3364       O  0.52969423  0.96845115  0.03140837    -1.29900
H3365       H  0.95742832  0.95413962  0.45579687     0.32700
O3366       O  0.96963907  0.96732079  0.46845459    -1.31200
O3367       O  0.50013330  0.70139873  0.16215265    -0.86700
O3368       O  0.49992134  0.70083320  0.33785495    -0.86900
O3369       O  0.54882389  0.66201563  0.24948895    -0.88500
O3370       O  0.94993914  0.66369215  0.24998057    -0.87300
O3371       O  0.91312093  0.70096164  0.25162579    -0.86900
O3372       O  0.58542104  0.69932218  0.24863939    -0.88200
O3373       O  0.49935379  0.66382707  0.30033821    -0.86700
O3374       O  0.50058180  0.66412046  0.19931167    -0.86300
Zr3375     Zr  0.49973134  0.68840967  0.24990702     2.84300
O3376       O  0.96962111  0.71961689  0.28090157    -1.08300
O3377       O  0.53025404  0.71919077  0.21853182    -1.09000
C3378       C  0.50064969  0.67315337  0.17099739     1.06400
C3379       C  0.49937326  0.67259581  0.32876745     1.06400
C3380       C  0.57688249  0.67086904  0.24895341     1.09300
C3381       C  0.92182293  0.67256599  0.25111189     1.07100
H3382       H  0.54410162  0.70607501  0.29341660     0.32700
O3383       O  0.53126670  0.71895036  0.28077760    -1.29200
H3384       H  0.95570134  0.70742099  0.20567656     0.32400
O3385       O  0.96867978  0.72007164  0.21851651    -1.30900
O3386       O  0.50276853  0.80008328  0.33714734    -0.86700
O3387       O  0.49920210  0.80062468  0.16295796    -0.88200
O3388       O  0.58813836  0.75055474  0.29767798    -0.86800
O3389       O  0.91589506  0.75145986  0.30186854    -0.86800
O3390       O  0.91276201  0.75071273  0.20067071    -0.86500
O3391       O  0.58683108  0.74874944  0.20017499    -0.86300
O3392       O  0.54884003  0.83849636  0.24817172    -0.86700
O3393       O  0.95034421  0.83788021  0.25038006    -0.86200
O3394       O  0.58526290  0.80073893  0.24799765    -0.87200
O3395       O  0.91332896  0.80075871  0.24838847    -0.86400
O3396       O  0.55172105  0.75039890  0.33525206    -0.86800
O3397       O  0.54971280  0.74999346  0.16309448    -0.86500
O3398       O  0.94932111  0.75336210  0.16301933    -0.86200
O3399       O  0.95288211  0.75155191  0.33909076    -0.86600
O3400       O  0.50297318  0.83765564  0.30022859    -0.86900
O3401       O  0.49750142  0.83784947  0.20031151    -0.88200
Zr3402     Zr  0.50107268  0.75039804  0.31195942     2.83100
Zr3403     Zr  0.49954619  0.75074982  0.18804500     2.83500
Zr3404     Zr  0.56119985  0.75011560  0.24922720     2.84100
Zr3405     Zr  0.93856691  0.75089855  0.25051467     2.83400
Zr3406     Zr  0.49984826  0.81256597  0.25020208     2.84200
O3407       O  0.96895390  0.78199575  0.21933340    -1.08800
O3408       O  0.53128296  0.78150278  0.28075896    -1.08300
C3409       C  0.50359928  0.82835805  0.32840210     1.06400
C3410       C  0.49793435  0.82884746  0.17201471     1.09000
C3411       C  0.57971341  0.75046954  0.32599783     1.06600
C3412       C  0.92476085  0.75161413  0.33029795     1.06900
C3413       C  0.92137988  0.75239966  0.17231468     1.06500
C3414       C  0.57790806  0.74901981  0.17197812     1.06100
C3415       C  0.57679547  0.82924870  0.24752723     1.06500
C3416       C  0.92229810  0.82897701  0.24897500     1.06000
H3417       H  0.54308095  0.79446192  0.20556526     0.32700
O3418       O  0.53054028  0.78175791  0.21860556    -1.29900
H3419       H  0.95733469  0.79481380  0.29471105     0.32700
O3420       O  0.96965536  0.78186306  0.28161967    -1.31200
O3421       O  0.83672234  0.99579641  0.19907806    -0.86700
O3422       O  0.66312220  0.99864304  0.20015652    -0.86900
O3423       O  0.74988804  0.95034255  0.16181079    -0.88500
O3424       O  0.75063329  0.54945006  0.16369616    -0.87300
O3425       O  0.75174037  0.58669276  0.20089550    -0.86900
O3426       O  0.75073653  0.91338332  0.19913154    -0.88200
O3427       O  0.69960086  0.99977431  0.16248523    -0.86700
O3428       O  0.79912286  0.99632676  0.16241222    -0.86300
Zr3429     Zr  0.74962832  0.99946745  0.18760190     2.84300
O3430       O  0.71999089  0.53045963  0.21944731    -1.08300
O3431       O  0.78059783  0.96838786  0.21836796    -1.09000
C3432       C  0.82734642  0.99508216  0.17092536     1.06400
C3433       C  0.67158823  0.99906954  0.17170917     1.06400
C3434       C  0.75047170  0.92219414  0.17075094     1.09300
C3435       C  0.75131204  0.57775784  0.17264268     1.07100
H3436       H  0.70653905  0.95548313  0.20604134     0.32700
O3437       O  0.71927032  0.96830448  0.21873207    -1.29200
H3438       H  0.79473460  0.54253971  0.20578636     0.32400
O3439       O  0.78183038  0.52998054  0.21854261    -1.30900
O3440       O  0.66357205  0.00049073  0.29984306    -0.86700
O3441       O  0.83745048  0.99843486  0.29896602    -0.88200
O3442       O  0.70176720  0.91124493  0.25010391    -0.86800
O3443       O  0.70264720  0.58768881  0.25016107    -0.86800
O3444       O  0.80234576  0.58430171  0.25124285    -0.86500
O3445       O  0.79989400  0.91191601  0.24667045    -0.86300
O3446       O  0.75102643  0.95117192  0.33803551    -0.86700
O3447       O  0.75309850  0.54910726  0.33666434    -0.86200
O3448       O  0.75114162  0.91405088  0.30075204    -0.87200
O3449       O  0.75435453  0.58646639  0.29958074    -0.86400
O3450       O  0.66504833  0.94870299  0.25081981    -0.86800
O3451       O  0.83667712  0.94927113  0.24773782    -0.86500
O3452       O  0.83898733  0.54692201  0.25100382    -0.86200
O3453       O  0.66567549  0.55071497  0.25001504    -0.86600
O3454       O  0.70098340  0.00023262  0.33676165    -0.86900
O3455       O  0.80076473  0.00016347  0.33640726    -0.88200
Zr3456     Zr  0.68886310  0.99946721  0.24994069     2.83100
Zr3457     Zr  0.81188666  0.99888964  0.24907934     2.83500
Zr3458     Zr  0.75052476  0.93755000  0.24972460     2.84100
Zr3459     Zr  0.75164971  0.56094497  0.25019342     2.83400
Zr3460     Zr  0.75090405  0.99981441  0.31129024     2.84200
O3461       O  0.78201245  0.52977987  0.28123539    -1.08800
O3462       O  0.71980599  0.96852704  0.28090457    -1.08300
C3463       C  0.67270203  0.00054041  0.32810676     1.06400
C3464       C  0.82879741  0.99941204  0.32733325     1.09000
C3465       C  0.67373708  0.92025674  0.25047771     1.06600
C3466       C  0.67449060  0.57906871  0.24992724     1.06900
C3467       C  0.83048270  0.57526143  0.25157129     1.06500
C3468       C  0.82785494  0.92111705  0.24647150     1.06100
C3469       C  0.75113685  0.92294816  0.32917738     1.06500
C3470       C  0.75444268  0.57729677  0.32772220     1.06000
H3471       H  0.79452467  0.95531708  0.29340783     0.32700
O3472       O  0.78170111  0.96813504  0.28069449    -1.29900
H3473       H  0.70787589  0.54375917  0.29437694     0.32700
O3474       O  0.72029362  0.53072701  0.28147417    -1.31200
O3475       O  0.70000174  0.66129510  0.50054185    -0.86700
O3476       O  0.69868683  0.83483940  0.49833379    -0.86900
O3477       O  0.66173632  0.75076569  0.04933563    -0.88500
O3478       O  0.66283724  0.74724070  0.44953104    -0.87300
O3479       O  0.69992262  0.74709131  0.41259036    -0.86900
O3480       O  0.69894884  0.74974507  0.08642688    -0.88200
O3481       O  0.66183032  0.79765151  0.49748492    -0.86700
O3482       O  0.66290310  0.69831585  0.50075472    -0.86300
Zr3483     Zr  0.68781056  0.74822789  0.49922223     2.84300
O3484       O  0.71842516  0.77924711  0.46820983    -1.08300
O3485       O  0.71777300  0.71776664  0.03131680    -1.09000
C3486       C  0.67183430  0.67005005  0.50121707     1.06400
C3487       C  0.67058905  0.82592059  0.49762110     1.06400
C3488       C  0.67077645  0.75079534  0.07753832     1.09300
C3489       C  0.67180887  0.74670821  0.42135103     1.07100
H3490       H  0.70531163  0.79257674  0.04385125     0.32700
O3491       O  0.71796357  0.77968633  0.03104503    -1.29200
H3492       H  0.70584754  0.70406595  0.45531354     0.32400
O3493       O  0.71841104  0.71709708  0.46799873    -1.30900
O3494       O  0.79830759  0.83670259  0.49938061    -0.86700
O3495       O  0.79895629  0.66157538  0.49785840    -0.88200
O3496       O  0.74958813  0.79756077  0.08785028    -0.86800
O3497       O  0.74860375  0.79755933  0.41151345    -0.86800
O3498       O  0.75091261  0.69786619  0.41300072    -0.86500
O3499       O  0.74726151  0.69843955  0.08630771    -0.86300
O3500       O  0.83625250  0.75107136  0.04979475    -0.86700
O3501       O  0.83532262  0.74899254  0.44943883    -0.86200
O3502       O  0.79935384  0.74836848  0.08710771    -0.87200
O3503       O  0.79887598  0.74809402  0.41172467    -0.86400
O3504       O  0.74839234  0.83459957  0.05058210    -0.86800
O3505       O  0.74757181  0.66120743  0.04915928    -0.86500
O3506       O  0.74927685  0.66080016  0.45032057    -0.86200
O3507       O  0.74785368  0.83455643  0.44895516    -0.86600
O3508       O  0.83537470  0.79949979  0.50033259    -0.86900
O3509       O  0.83555869  0.69905475  0.49905128    -0.88200
Zr3510     Zr  0.74887456  0.81044492  0.49941060     2.83100
Zr3511     Zr  0.74944421  0.68688107  0.49940330     2.83500
Zr3512     Zr  0.74911276  0.74855382  0.06184820     2.84100
Zr3513     Zr  0.74956730  0.74815852  0.43752084     2.83400
Zr3514     Zr  0.81074790  0.74916746  0.49986723     2.84200
O3515       O  0.78055100  0.71763222  0.46870146    -1.08800
O3516       O  0.77936632  0.77983116  0.03076146    -1.08300
C3517       C  0.82650625  0.82786333  0.49993364     1.06400
C3518       C  0.82691598  0.67071349  0.49809154     1.09000
C3519       C  0.74899999  0.82572613  0.07893895     1.06600
C3520       C  0.74796966  0.82579924  0.42054648     1.06900
C3521       C  0.75025249  0.66966043  0.42212435     1.06500
C3522       C  0.74688935  0.67014504  0.07736358     1.06100
C3523       C  0.82747056  0.74993312  0.07817060     1.06500
C3524       C  0.82687595  0.74860779  0.42089750     1.06000
H3525       H  0.79276065  0.70503255  0.04374369     0.32700
O3526       O  0.78007288  0.71784580  0.03087238    -1.29900
H3527       H  0.79261725  0.79261092  0.45562619     0.32700
O3528       O  0.78003950  0.77978239  0.46840353    -1.31200
C3529       C  0.74147062  0.59353206  0.11869264    -0.12500
C3530       C  0.75092849  0.60166042  0.14846638     0.04500
C3531       C  0.75865340  0.63258047  0.15449848    -0.07800
C3532       C  0.75601815  0.65439791  0.13124392    -0.08500
C3533       C  0.74665331  0.64628373  0.10150871    -0.03100
C3534       C  0.73877876  0.61542588  0.09544236     0.03800
N3535       N  0.72649461  0.60608131  0.06643773     0.66300
H3536       H  0.73557151  0.57001521  0.11338080     0.15200
H3537       H  0.76207908  0.67785117  0.13647054     0.14900
N3538       N  0.77106344  0.64209378  0.18336886     0.74000
O3539       O  0.74235405  0.58963253  0.04870527    -0.39500
O3540       O  0.69816176  0.60815268  0.06188292    -0.39400
O3541       O  0.79944954  0.64018296  0.18757435    -0.40100
O3542       O  0.75557435  0.65943291  0.20056846    -0.40200
C3543       C  0.75518760  0.88030155  0.09397006    -0.12500
C3544       C  0.74925493  0.84994689  0.10287884     0.04500
C3545       C  0.74386186  0.84370876  0.13431761    -0.07800
C3546       C  0.74472153  0.86753317  0.15574842    -0.08500
C3547       C  0.75041523  0.89794127  0.14681352    -0.03100
C3548       C  0.75561557  0.90419917  0.11532443     0.03800
N3549       N  0.76137824  0.93453666  0.10431476     0.66300
H3550       H  0.75955002  0.88579601  0.07010147     0.15200
H3551       H  0.74025909  0.86204158  0.17959777     0.14900
N3552       N  0.73648757  0.81362439  0.14501829     0.74000
O3553       O  0.73932152  0.95069016  0.09498075    -0.39500
O3554       O  0.78812418  0.94182283  0.09670308    -0.39400
O3555       O  0.75641613  0.79820194  0.15919029    -0.40100
O3556       O  0.70888022  0.80584985  0.14691217    -0.40200
C3557       C  0.74608747  0.86817177  0.34389560    -0.12500
C3558       C  0.75089580  0.89864896  0.35315230     0.04500
C3559       C  0.75434370  0.90486017  0.38494251    -0.07800
C3560       C  0.75332083  0.88082245  0.40614112    -0.08500
C3561       C  0.74814383  0.85036621  0.39683296    -0.03100
C3562       C  0.74386350  0.84436793  0.36517903     0.03800
N3563       N  0.73443445  0.81500503  0.35421244     0.66300
H3564       H  0.74287252  0.86265040  0.31985426     0.15200
H3565       H  0.75641098  0.88633858  0.43022801     0.14900
N3566       N  0.75861932  0.93528949  0.39646319     0.74000
O3567       O  0.70637505  0.80891794  0.35430337    -0.39500
O3568       O  0.75178007  0.80011679  0.33652717    -0.39400
O3569       O  0.73603378  0.94961797  0.40731077    -0.40100
O3570       O  0.78515442  0.94415177  0.40320399    -0.40200
C3571       C  0.73822635  0.59523464  0.37879202    -0.12500
C3572       C  0.75481797  0.60081091  0.35189962     0.04500
C3573       C  0.77025971  0.62894156  0.34847273    -0.07800
C3574       C  0.76833561  0.65097081  0.37170873    -0.08500
C3575       C  0.75127897  0.64565635  0.39832502    -0.03100
C3576       C  0.73613996  0.61737982  0.40182130     0.03800
N3577       N  0.71683805  0.61152249  0.42750594     0.66300
H3578       H  0.72579892  0.57394021  0.38153062     0.15200
H3579       H  0.78052485  0.67225878  0.36919214     0.14900
N3580       N  0.78873284  0.63513788  0.32217690     0.74000
O3581       O  0.68897347  0.61849384  0.42567701    -0.39500
O3582       O  0.72555845  0.59295526  0.44796237    -0.39400
O3583       O  0.77807990  0.65136382  0.30067114    -0.40100
O3584       O  0.81710577  0.63061212  0.32369378    -0.40200
C3585       C  0.90715356  0.61720105  0.25566057    -0.12500
C3586       C  0.89805613  0.64800904  0.25188491     0.04500
C3587       C  0.86654689  0.65429956  0.24878484    -0.07800
C3588       C  0.84541241  0.63035457  0.24924735    -0.08500
C3589       C  0.85446146  0.59955105  0.25232249    -0.03100
C3590       C  0.88597390  0.59314483  0.25578902     0.03800
N3591       N  0.89717516  0.56249695  0.25931602     0.66300
H3592       H  0.93103982  0.61146657  0.25839761     0.15200
H3593       H  0.82154551  0.63620732  0.24669564     0.14900
N3594       N  0.85529131  0.68472419  0.24419421     0.74000
O3595       O  0.90636312  0.54805533  0.23593372    -0.39500
O3596       O  0.90473229  0.55310561  0.28568310    -0.39400
O3597       O  0.85005822  0.69376985  0.21717344    -0.40100
O3598       O  0.84312057  0.69874796  0.26641262    -0.40200
C3599       C  0.87702411  0.90134077  0.26546389    -0.12500
C3600       C  0.85204843  0.89775820  0.24574817     0.04500
C3601       C  0.85068810  0.87211774  0.22606103    -0.07800
C3602       C  0.87358151  0.84961807  0.22763209    -0.08500
C3603       C  0.89845849  0.85297723  0.24785756    -0.03100
C3604       C  0.90021424  0.87941695  0.26655167     0.03800
N3605       N  0.92468948  0.88380971  0.28778377     0.66300
H3606       H  0.87829483  0.92108619  0.28061602     0.15200
H3607       H  0.87242341  0.82994273  0.21239760     0.14900
N3608       N  0.82735325  0.86978991  0.20315675     0.74000
O3609       O  0.94600183  0.90188183  0.28084211    -0.39500
O3610       O  0.92104813  0.87630561  0.31552754    -0.39400
O3611       O  0.82734861  0.88791571  0.18054489    -0.40100
O3612       O  0.80466767  0.85266266  0.20762346    -0.40200
C3613       C  0.63203207  0.65626445  0.25074092    -0.12500
C3614       C  0.60142398  0.64689263  0.24902016     0.04500
C3615       C  0.59540340  0.61497312  0.24743311    -0.07800
C3616       C  0.61945872  0.59379116  0.24773732    -0.08500
C3617       C  0.65005400  0.60314246  0.24957347    -0.03100
C3618       C  0.65609556  0.63504830  0.25095652     0.03800
N3619       N  0.68643298  0.64670971  0.25204646     0.66300
H3620       H  0.63764579  0.68044497  0.25189465     0.15200
H3621       H  0.61382076  0.56962567  0.24643500     0.14900
N3622       N  0.56513102  0.60324781  0.24515497     0.74000
O3623       O  0.69824580  0.65660142  0.22761082    -0.39500
O3624       O  0.69752812  0.65481601  0.27756630    -0.39400
O3625       O  0.55590652  0.59326839  0.21956155    -0.40100
O3626       O  0.55169504  0.59482223  0.26930497    -0.40200
C3627       C  0.63139206  0.84368159  0.25303012    -0.12500
C3628       C  0.60131719  0.85285447  0.24676839     0.04500
C3629       C  0.59568922  0.88426273  0.24055824    -0.07800
C3630       C  0.61947956  0.90551361  0.24243873    -0.08500
C3631       C  0.64940659  0.89644484  0.24968948    -0.03100
C3632       C  0.65522310  0.86484976  0.25468697     0.03800
N3633       N  0.68491327  0.85361692  0.26223581     0.66300
H3634       H  0.63666542  0.81974097  0.25697644     0.15200
H3635       H  0.61440879  0.92932647  0.23733076     0.14900
N3636       N  0.56657441  0.89497504  0.23036806     0.74000
O3637       O  0.69247148  0.85159385  0.29014125    -0.39500
O3638       O  0.69960003  0.83844877  0.24243173    -0.39400
O3639       O  0.55076518  0.91135402  0.24815927    -0.40100
O3640       O  0.56119592  0.89599047  0.20189596    -0.40200
C3641       C  0.87494911  0.77258751  0.10112502    -0.12500
C3642       C  0.85157354  0.75050121  0.10235137     0.04500
C3643       C  0.85143431  0.72949568  0.12705799    -0.07800
C3644       C  0.87423497  0.73064334  0.14959339    -0.08500
C3645       C  0.89728484  0.75269039  0.14848994    -0.03100
C3646       C  0.89740706  0.77410485  0.12424837     0.03800
N3647       N  0.91914797  0.79850552  0.12396695     0.66300
H3648       H  0.87517460  0.78932581  0.08272700     0.15200
H3649       H  0.87430072  0.71373126  0.16776395     0.14900
N3650       N  0.82873139  0.70626087  0.12932753     0.74000
O3651       O  0.94261185  0.79629670  0.10740843    -0.39500
O3652       O  0.91777445  0.81922593  0.14423233    -0.39400
O3653       O  0.83420488  0.67994678  0.11845950    -0.40100
O3654       O  0.80798295  0.70935388  0.14910116    -0.40200
C3655       C  0.59571819  0.76298876  0.11965868    -0.12500
C3656       C  0.60189960  0.74898080  0.14801283     0.04500
C3657       C  0.63125782  0.73637641  0.15315446    -0.07800
C3658       C  0.65323568  0.73751560  0.12999509    -0.08500
C3659       C  0.64700796  0.75141465  0.10163887    -0.03100
C3660       C  0.61796462  0.76471619  0.09675097     0.03800
N3661       N  0.61104306  0.78141530  0.06936515     0.66300
H3662       H  0.57373206  0.77361607  0.11551977     0.15200
H3663       H  0.67527777  0.72703470  0.13420454     0.14900
N3664       N  0.63916845  0.72178103  0.18147027     0.74000
O3665       O  0.59254540  0.77017475  0.05022191    -0.39500
O3666       O  0.61718318  0.80967480  0.06813923    -0.39400
O3667       O  0.63794535  0.69290654  0.18327059    -0.40100
O3668       O  0.65444501  0.73650427  0.20115361    -0.40200
C3669       C  0.65632995  0.75425189  0.36701326    -0.12500
C3670       C  0.64816002  0.74614261  0.39704170     0.04500
C3671       C  0.61750571  0.73846879  0.40312002    -0.07800
C3672       C  0.59578450  0.74044756  0.37974652    -0.08500
C3673       C  0.60378458  0.74956063  0.34990268    -0.03100
C3674       C  0.63465617  0.75636270  0.34363083     0.03800
N3675       N  0.64446223  0.76667445  0.31412886     0.66300
H3676       H  0.67976462  0.75936591  0.36152580     0.15200
H3677       H  0.57253418  0.73404986  0.38501278     0.14900
N3678       N  0.60819634  0.72686512  0.43230284     0.74000
O3679       O  0.64591742  0.79514345  0.30915423    -0.39500
O3680       O  0.65905946  0.74850122  0.29695817    -0.39400
O3681       O  0.59147673  0.74315297  0.44936327    -0.40100
O3682       O  0.61063127  0.69849591  0.43761367    -0.40200
C3683       C  0.87055269  0.74409372  0.34484079    -0.12500
C3684       C  0.90034400  0.75126247  0.35414742     0.04500
C3685       C  0.90544820  0.75779769  0.38563111    -0.07800
C3686       C  0.88131397  0.75643427  0.40658980    -0.08500
C3687       C  0.85149125  0.74931945  0.39722787    -0.03100
C3688       C  0.84633308  0.74337836  0.36563702     0.03800
N3689       N  0.81684926  0.73630859  0.35379681     0.66300
H3690       H  0.86566747  0.73897449  0.32095795     0.15200
H3691       H  0.88609603  0.76174080  0.43045331     0.14900
N3692       N  0.93432819  0.76775107  0.39685642     0.74000
O3693       O  0.80021851  0.75805663  0.34451242    -0.39500
O3694       O  0.81225239  0.70974697  0.34325596    -0.39400
O3695       O  0.93747958  0.79576762  0.40335951    -0.40100
O3696       O  0.95130865  0.74851145  0.41009701    -0.40200
C3697       C  0.87901652  0.84493987  0.51448772    -0.12500
C3698       C  0.84952211  0.85292945  0.00176304     0.04500
C3699       C  0.84356702  0.88459886  0.99715200    -0.07800
C3700       C  0.86756159  0.90581450  0.99722732    -0.08500
C3701       C  0.89794152  0.89676874  0.00243194    -0.03100
C3702       C  0.90274939  0.86650820  0.51558737     0.03800
N3703       N  0.93004008  0.85864786  0.53177212     0.66300
H3704       H  0.88256563  0.82276406  0.52519272     0.15200
H3705       H  0.86212442  0.92969661  0.99289158     0.14900
N3706       N  0.81345699  0.89592551  0.99184743     0.74000
O3707       O  0.93080219  0.86149373  0.56063310    -0.39500
O3708       O  0.94988216  0.84225991  0.51864449    -0.39400
O3709       O  0.79945377  0.90907157  0.01350804    -0.40100
O3710       O  0.81815149  0.88678257  0.44302466    -0.40200
C3711       C  0.86757434  0.59254656  0.00387261    -0.12500
C3712       C  0.89803101  0.60158634  0.99983841     0.04500
C3713       C  0.90277929  0.63225638  0.51336984    -0.07800
C3714       C  0.87910485  0.65379094  0.51236851    -0.08500
C3715       C  0.84993306  0.64569049  0.00092948    -0.03100
C3716       C  0.84378703  0.61401724  0.00502893     0.03800
N3717       N  0.81389248  0.60308200  0.01182124     0.66300
H3718       H  0.86198182  0.56852639  0.00676283     0.15200
H3719       H  0.88249696  0.67585940  0.52338270     0.14900
N3720       N  0.93015224  0.64018690  0.52934073     0.74000
O3721       O  0.79896895  0.58924777  0.99123548    -0.39500
O3722       O  0.80619740  0.59999713  0.03956704    -0.39400
O3723       O  0.94961693  0.65677496  0.51607075    -0.40100
O3724       O  0.93104479  0.63767630  0.55822089    -0.40200
C3725       C  0.65376587  0.88002258  0.01133930    -0.12500
C3726       C  0.64643455  0.85080365  0.99982761     0.04500
C3727       C  0.61696311  0.84550433  0.48655108    -0.07800
C3728       C  0.59530659  0.86906093  0.48842447    -0.08500
C3729       C  0.60195403  0.89805738  0.00215714    -0.03100
C3730       C  0.63204265  0.90354963  0.01255369     0.03800
N3731       N  0.64095233  0.93256318  0.02502948     0.66300
H3732       H  0.67651950  0.88469809  0.01982732     0.15200
H3733       H  0.57280295  0.86499591  0.47898258     0.14900
N3734       N  0.60831737  0.81734492  0.47214022     0.74000
O3735       O  0.64009329  0.93664555  0.05373222    -0.39500
O3736       O  0.65602290  0.94982445  0.51443743    -0.39400
O3737       O  0.59072278  0.79886788  0.99081416    -0.40100
O3738       O  0.61313787  0.81381344  0.44377108    -0.40200
C3739       C  0.59636920  0.62843675  0.01889403    -0.12500
C3740       C  0.60110098  0.60122611  0.00230996     0.04500
C3741       C  0.63378815  0.59219910  0.49284200    -0.07800
C3742       C  0.65197998  0.61883285  0.98948726    -0.08500
C3743       C  0.64697435  0.64665457  0.00504946    -0.03100
C3744       C  0.61889518  0.65111346  0.02032974     0.03800
N3745       N  0.61340992  0.67771855  0.03876117     0.66300
H3746       H  0.57521293  0.63195669  0.03123386     0.15200
H3747       H  0.67342774  0.61475064  0.97814079     0.14900
N3748       N  0.64264922  0.56230789  0.48247067     0.74000
O3749       O  0.59214746  0.69832873  0.50593619    -0.39500
O3750       O  0.61802800  0.67631603  0.06736217    -0.39400
O3751       O  0.63484975  0.55315821  0.45607248    -0.40100
O3752       O  0.65072928  0.54869317  0.97703814    -0.40200
C3753       C  0.87371832  0.51821760  0.40017040    -0.12500
C3754       C  0.89999303  0.50030754  0.39614605     0.04500
C3755       C  0.90340047  0.98180280  0.36808602    -0.07800
C3756       C  0.88031422  0.98307794  0.34576516    -0.08500
C3757       C  0.85349335  0.50052591  0.35119141    -0.03100
C3758       C  0.85065663  0.51862155  0.37797842     0.03800
N3759       N  0.82526643  0.53875858  0.38231579     0.66300
H3760       H  0.87128256  0.53245445  0.42048412     0.15200
H3761       H  0.88335630  0.97052056  0.32446302     0.14900
N3762       N  0.92964262  0.96299959  0.36271011     0.74000
O3763       O  0.80511430  0.53196336  0.40176679    -0.39500
O3764       O  0.82664351  0.56586366  0.37223175    -0.39400
O3765       O  0.93337839  0.93861062  0.37790891    -0.40100
O3766       O  0.95090408  0.97274203  0.34590424    -0.40200
C3767       C  0.59815000  0.01229666  0.37187964    -0.12500
C3768       C  0.60402594  0.49459584  0.40037274     0.04500
C3769       C  0.63466465  0.48605319  0.40614615    -0.07800
C3770       C  0.65651769  0.48819431  0.38269121    -0.08500
C3771       C  0.64875846  0.49834328  0.35299331    -0.03100
C3772       C  0.62005796  0.01414083  0.34858171     0.03800
N3773       N  0.61285915  0.03144883  0.32164761     0.66300
H3774       H  0.57637279  0.02356480  0.36837018     0.15200
H3775       H  0.67967387  0.48107693  0.38770329     0.14900
N3776       N  0.64382664  0.47343023  0.43502372     0.74000
O3777       O  0.59674642  0.01930598  0.30091073    -0.39500
O3778       O  0.60872116  0.54605853  0.31267196    -0.39400
O3779       O  0.63850015  0.93733663  0.43024783    -0.40100
O3780       O  0.66079480  0.48894002  0.45254903    -0.40200
C3781       C  0.61953765  0.98307238  0.15467503    -0.12500
C3782       C  0.64735631  0.50057851  0.14903763     0.04500
C3783       C  0.65138904  0.51290251  0.11935500    -0.07800
C3784       C  0.62763815  0.51181936  0.09797765    -0.08500
C3785       C  0.59926761  0.49905379  0.10539531    -0.03100
C3786       C  0.59568532  0.98184924  0.13313414     0.03800
N3787       N  0.56889654  0.96486221  0.14064334     0.66300
H3788       H  0.61659325  0.97174844  0.17663014     0.15200
H3789       H  0.63133663  0.52184105  0.07550997     0.14900
N3790       N  0.67852778  0.52880969  0.11113429     0.74000
O3791       O  0.54875034  0.97718408  0.15726519    -0.39500
O3792       O  0.56902610  0.93606516  0.13739953    -0.39400
O3793       O  0.69814489  0.51541453  0.09469134    -0.40100
O3794       O  0.67873907  0.55770991  0.11292780    -0.40200
C3795       C  0.84465924  0.50855125  0.11866510    -0.12500
C3796       C  0.85165194  0.49638034  0.14770140     0.04500
C3797       C  0.87979858  0.98084630  0.15053651    -0.07800
C3798       C  0.90157379  0.98270484  0.12712693    -0.08500
C3799       C  0.89629410  0.49857971  0.10080553    -0.03100
C3800       C  0.86661633  0.51011546  0.09548566     0.03800
N3801       N  0.85896244  0.52574906  0.06768597     0.66300
H3802       H  0.82224598  0.51805707  0.11416317     0.15200
H3803       H  0.92383577  0.97259499  0.13103686     0.14900
N3804       N  0.88727884  0.96410681  0.17775679     0.74000
O3805       O  0.84189158  0.00653391  0.04594885    -0.39500
O3806       O  0.86161313  0.55455958  0.06668696    -0.39400
O3807       O  0.88399227  0.93533575  0.17789648    -0.40100
O3808       O  0.90397976  0.48887395  0.20130113    -0.40200
C3809       C  0.48987432  0.62901432  0.40418814    -0.12500
C3810       C  0.50240181  0.60033566  0.39675657     0.04500
C3811       C  0.01365499  0.59624203  0.36683075    -0.07800
C3812       C  0.01192654  0.61969703  0.34492417    -0.08500
C3813       C  0.49955722  0.64807964  0.35251554    -0.03100
C3814       C  0.48858636  0.65274011  0.38267692     0.03800
N3815       N  0.47585032  0.68129711  0.39214776     0.66300
H3816       H  0.48079430  0.63321241  0.42696704     0.15200
H3817       H  0.02296183  0.61628001  0.32293991     0.14900
N3818       N  0.03112722  0.56950330  0.35965873     0.74000
O3819       O  0.44723564  0.68388987  0.39342758    -0.39500
O3820       O  0.49225336  0.69926345  0.40776300    -0.39400
O3821       O  0.02099848  0.55060294  0.34017719    -0.40100
O3822       O  0.05913508  0.56919847  0.36622028    -0.40200
C3823       C  0.51921006  0.90153975  0.37291432    -0.12500
C3824       C  0.50225601  0.89642464  0.39957972     0.04500
C3825       C  0.99144669  0.86642966  0.40493917    -0.07800
C3826       C  0.99313196  0.84444358  0.38162598    -0.08500
C3827       C  0.50441340  0.85176189  0.35290208    -0.03100
C3828       C  0.52047948  0.87951611  0.34971067     0.03800
N3829       N  0.53840437  0.88581846  0.32323945     0.66300
H3830       H  0.53187829  0.92268816  0.37014749     0.15200
H3831       H  0.98295669  0.82225804  0.38536035     0.14900
N3832       N  0.97578278  0.85902887  0.43275899     0.74000
O3833       O  0.52892445  0.90585887  0.30466182    -0.39500
O3834       O  0.56636508  0.87898675  0.32352961    -0.39400
O3835       O  0.95013134  0.87091747  0.43838161    -0.40100
O3836       O  0.98894437  0.84311338  0.45306066    -0.40200
C3837       C  0.98203708  0.90267058  0.12807470    -0.12500
C3838       C  0.49903649  0.89748352  0.10137110     0.04500
C3839       C  0.51638597  0.87039377  0.09826551    -0.07800
C3840       C  0.51516760  0.84801134  0.12124078    -0.08500
C3841       C  0.49764404  0.85263944  0.14789204    -0.03100
C3842       C  0.98144297  0.88076496  0.15138479     0.03800
N3843       N  0.96243884  0.88623650  0.17745825     0.66300
H3844       H  0.96801144  0.92307888  0.13031583     0.15200
H3845       H  0.52885998  0.82741141  0.11875169     0.14900
N3846       N  0.53680389  0.86629024  0.07297154     0.74000
O3847       O  0.93478293  0.87850520  0.17627726    -0.39500
O3848       O  0.97081682  0.90552526  0.19740039    -0.39400
O3849       O  0.56050002  0.88253380  0.07110522    -0.40100
O3850       O  0.52950292  0.84900264  0.05087582    -0.40200
C3851       C  0.99003317  0.63088778  0.09445003    -0.12500
C3852       C  0.50399307  0.60145774  0.10266098     0.04500
C3853       C  0.51588630  0.59671601  0.13247605    -0.07800
C3854       C  0.51451395  0.62038684  0.15418717    -0.08500
C3855       C  0.50175937  0.64907401  0.14693453    -0.03100
C3856       C  0.98917236  0.65479140  0.11586309     0.03800
N3857       N  0.97608102  0.68343661  0.10671042     0.66300
H3858       H  0.98052477  0.63488296  0.07179471     0.15200
H3859       H  0.52377102  0.61633665  0.17685417     0.14900
N3860       N  0.53025636  0.56848084  0.14093922     0.74000
O3861       O  0.99116618  0.70112978  0.08961230    -0.39500
O3862       O  0.94773239  0.68748258  0.10937297    -0.39400
O3863       O  0.55885284  0.56612339  0.13897904    -0.40100
O3864       O  0.51576456  0.54945561  0.15708196    -0.40200
O3865       O  0.49698575  0.55005917  0.58755161    -0.86700
O3866       O  0.49805358  0.54841205  0.91220328    -0.86900
O3867       O  0.55127674  0.58471260  0.50066168    -0.88500
O3868       O  0.95102331  0.58815729  0.49994788    -0.87300
O3869       O  0.91409600  0.55096597  0.49879899    -0.86900
O3870       O  0.58740180  0.54673593  0.50257025    -0.88200
O3871       O  0.49753621  0.58552395  0.94961722    -0.86700
O3872       O  0.50026214  0.58672197  0.54988211    -0.86300
Zr3873     Zr  0.50092033  0.56132498  0.49985546     2.84300
O3874       O  0.96980327  0.52977420  0.96897825    -1.08300
O3875       O  0.53021823  0.53028765  0.53232758    -1.09000
C3876       C  0.49829561  0.57811269  0.57823951     1.06400
C3877       C  0.49688355  0.57660724  0.92119650     1.06400
C3878       C  0.57917330  0.57513080  0.50153421     1.09300
C3879       C  0.92297816  0.57925803  0.49961956     1.07100
H3880       H  0.54432091  0.54329081  0.95718318     0.32700
O3881       O  0.53160494  0.53065332  0.96977239    -1.29200
H3882       H  0.95533320  0.54445388  0.54236529     0.32400
O3883       O  0.96800042  0.53147129  0.52998327    -1.30900
O3884       O  0.50047770  0.94958530  0.91278568    -0.86700
O3885       O  0.49967408  0.95044062  0.58723633    -0.88200
O3886       O  0.58846516  0.49726786  0.95341165    -0.86800
O3887       O  0.91461648  0.49892285  0.94963672    -0.86800
O3888       O  0.91042074  0.50221108  0.54754129    -0.86500
O3889       O  0.58364777  0.49869684  0.55356981    -0.86300
O3890       O  0.55056411  0.91312216  0.50104561    -0.86700
O3891       O  0.95134797  0.91091372  0.50243795    -0.86200
O3892       O  0.58741019  0.95027435  0.50227516    -0.87200
O3893       O  0.91424408  0.94799536  0.50021019    -0.86400
O3894       O  0.55208115  0.49847806  0.91552137    -0.86800
O3895       O  0.54615175  0.49962590  0.59012828    -0.86500
O3896       O  0.94702778  0.50177389  0.58508936    -0.86200
O3897       O  0.95222350  0.49852391  0.91300780    -0.86600
O3898       O  0.50066895  0.91272470  0.95027337    -0.86900
O3899       O  0.50108097  0.91286231  0.55031156    -0.88200
Zr3900     Zr  0.50101777  0.49948433  0.93869814     2.83900
Zr3901     Zr  0.49761402  0.50034785  0.56241627     2.83500
Zr3902     Zr  0.56092000  0.49808482  0.50231259     2.84100
Zr3903     Zr  0.93770632  0.50014491  0.49887638     2.83400
Zr3904     Zr  0.50035837  0.93749548  0.50064383     2.84200
O3905       O  0.96845622  0.96841738  0.53086673    -1.08800
O3906       O  0.53104075  0.96824289  0.96908000    -1.08300
C3907       C  0.50041318  0.92146507  0.92202373     1.06400
C3908       C  0.50091133  0.92217145  0.57841933     1.09000
C3909       C  0.58012735  0.49749461  0.92495738     1.06600
C3910       C  0.92401445  0.49866348  0.92155370     1.06900
C3911       C  0.91898231  0.50247109  0.57594353     1.06500
C3912       C  0.57440668  0.49922722  0.58178529     1.06100
C3913       C  0.57866148  0.92200962  0.50182708     1.06500
C3914       C  0.92315792  0.91968936  0.50181406     1.06000
H3915       H  0.54293448  0.95648728  0.54477087     0.32700
O3916       O  0.53048275  0.96876286  0.53194232    -1.29900
H3917       H  0.95698376  0.95510207  0.95501691     0.32700
O3918       O  0.96950093  0.96812239  0.96795926    -1.31200
O3919       O  0.50063937  0.70120447  0.66175868    -0.86700
O3920       O  0.49956258  0.70031336  0.83701144    -0.86900
O3921       O  0.54743389  0.66199999  0.74983224    -0.88500
O3922       O  0.94882169  0.66460917  0.74945904    -0.87300
O3923       O  0.91222931  0.70219320  0.74952626    -0.86900
O3924       O  0.58417859  0.69921623  0.74966588    -0.88200
O3925       O  0.49747302  0.66314821  0.79968922    -0.86700
O3926       O  0.49961034  0.66406454  0.69915446    -0.86300
Zr3927     Zr  0.49841658  0.68853360  0.74959467     2.84300
O3928       O  0.96845160  0.71973435  0.78063192    -1.08300
O3929       O  0.52931586  0.71922460  0.71850258    -1.09000
C3930       C  0.50064254  0.67301635  0.67085561     1.06400
C3931       C  0.49838465  0.67203711  0.82807231     1.06400
C3932       C  0.57551312  0.67083063  0.74993570     1.09300
C3933       C  0.92078715  0.67384670  0.74956303     1.07100
H3934       H  0.54276577  0.70610351  0.79316707     0.32700
O3935       O  0.53006696  0.71900637  0.78042056    -1.29200
H3936       H  0.95568097  0.70741461  0.70509648     0.32400
O3937       O  0.96848020  0.72006265  0.71811847    -1.30900
O3938       O  0.50151718  0.79984661  0.83703424    -0.86700
O3939       O  0.49967351  0.80074457  0.66272652    -0.88200
O3940       O  0.58694714  0.75088509  0.79802629    -0.86800
O3941       O  0.91287854  0.75052959  0.79942523    -0.86800
O3942       O  0.91324937  0.75191310  0.69955070    -0.86500
O3943       O  0.58636407  0.74699892  0.69981523    -0.86300
O3944       O  0.54760909  0.83858172  0.74899602    -0.86700
O3945       O  0.95035386  0.83833136  0.75066363    -0.86200
O3946       O  0.58423119  0.80106157  0.74800026    -0.87200
O3947       O  0.91332643  0.80138414  0.74913079    -0.86400
O3948       O  0.55032460  0.75068870  0.83543437    -0.86800
O3949       O  0.54916659  0.74876383  0.66276620    -0.86500
O3950       O  0.95003898  0.75276906  0.66207567    -0.86200
O3951       O  0.94960504  0.74944101  0.83698517    -0.86600
O3952       O  0.50114666  0.83701673  0.79983911    -0.86900
O3953       O  0.49822543  0.83762412  0.70036074    -0.88200
Zr3954     Zr  0.49983952  0.75022989  0.81168106     2.83100
Zr3955     Zr  0.49902329  0.75070409  0.68757890     2.83500
Zr3956     Zr  0.56049335  0.75007402  0.74910369     2.84100
Zr3957     Zr  0.93819415  0.75133321  0.74960558     2.83400
Zr3958     Zr  0.49905482  0.81219859  0.74991020     2.84200
O3959       O  0.96888209  0.78210849  0.71858252    -1.08800
O3960       O  0.53030721  0.78121282  0.78058260    -1.08300
C3961       C  0.50196299  0.82807337  0.82807077     1.06400
C3962       C  0.49888157  0.82891987  0.67202933     1.09000
C3963       C  0.57837968  0.75095355  0.82634740     1.06600
C3964       C  0.92147760  0.74966801  0.82784681     1.06900
C3965       C  0.92202412  0.75271798  0.67124240     1.06500
C3966       C  0.57734449  0.74711644  0.67156733     1.06100
C3967       C  0.57558248  0.82956395  0.74806904     1.06500
C3968       C  0.92225898  0.82961086  0.74984942     1.06000
H3969       H  0.54269089  0.79428204  0.70538500     0.32700
O3970       O  0.52999565  0.78161530  0.71830631    -1.29900
H3971       H  0.95616790  0.79473067  0.79435436     0.32700
O3972       O  0.96873067  0.78188648  0.78140307    -1.31200
O3973       O  0.83713282  0.99716991  0.70071145    -0.86700
O3974       O  0.66409439  0.00100624  0.69852954    -0.86900
O3975       O  0.75120407  0.95031771  0.66159997    -0.88500
O3976       O  0.75079778  0.55088282  0.66454875    -0.87300
O3977       O  0.75091897  0.58841539  0.70141774    -0.86900
O3978       O  0.74981390  0.91327933  0.69903337    -0.88200
O3979       O  0.70094248  0.00138838  0.66122055    -0.86700
O3980       O  0.80022257  0.99764423  0.66342827    -0.86300
Zr3981     Zr  0.75013832  0.99983115  0.68757398     2.84300
O3982       O  0.71933005  0.53199734  0.72025091    -1.08300
O3983       O  0.78036769  0.96856201  0.71883063    -1.09000
C3984       C  0.82833539  0.99672450  0.67237891     1.06400
C3985       C  0.67287326  0.00150913  0.67019098     1.06400
C3986       C  0.75079373  0.92210987  0.67065948     1.09300
C3987       C  0.75127534  0.57919272  0.67325103     1.07100
H3988       H  0.70608826  0.95628706  0.70514685     0.32700
O3989       O  0.71871801  0.96897492  0.71808945    -1.29200
H3990       H  0.79388927  0.54440872  0.70661891     0.32400
O3991       O  0.78123359  0.53177777  0.71954551    -1.30900
O3992       O  0.66199756  0.00189991  0.79856362    -0.86700
O3993       O  0.83585460  0.99898851  0.80019879    -0.88200
O3994       O  0.70020206  0.91220981  0.74979468    -0.86800
O3995       O  0.70136026  0.58863488  0.75060019    -0.86800
O3996       O  0.80065676  0.58729251  0.74918241    -0.86500
O3997       O  0.79869789  0.91237809  0.74865822    -0.86300
O3998       O  0.74868035  0.95100388  0.83756901    -0.86700
O3999       O  0.75325326  0.55096157  0.83712355    -0.86200
O4000       O  0.74894164  0.91380223  0.80028091    -0.87200
O4001       O  0.75381185  0.58840125  0.80008232    -0.86400
O4002       O  0.66363072  0.94979754  0.74970409    -0.86800
O4003       O  0.83561695  0.94951974  0.74932034    -0.86500
O4004       O  0.83765859  0.55015303  0.74949562    -0.86200
O4005       O  0.66475753  0.55127944  0.75075065    -0.86600
O4006       O  0.69906023  0.00127723  0.83580098    -0.86900
O4007       O  0.79895760  0.00075158  0.83743689    -0.88200
Zr4008     Zr  0.68809066  0.00038181  0.74905675     2.83100
Zr4009     Zr  0.81109186  0.99927958  0.75007647     2.83500
Zr4010     Zr  0.74928257  0.93798436  0.74958294     2.84100
Zr4011     Zr  0.75080757  0.56273728  0.75082034     2.83400
Zr4012     Zr  0.74933895  0.00020045  0.81150554     2.84200
O4013       O  0.78200747  0.53214268  0.78194753    -1.08800
O4014       O  0.71846251  0.96923380  0.78043694    -1.08300
C4015       C  0.67088245  0.00194453  0.82691099     1.06400
C4016       C  0.82706476  0.99999925  0.82849408     1.09000
C4017       C  0.67219211  0.92128792  0.74985404     1.06600
C4018       C  0.67330185  0.57968830  0.75040881     1.06900
C4019       C  0.82878319  0.57839110  0.74874873     1.06500
C4020       C  0.82673053  0.92135633  0.74859713     1.06100
C4021       C  0.74879543  0.92274313  0.82868115     1.06500
C4022       C  0.75415571  0.57914937  0.82818604     1.06000
H4023       H  0.79275944  0.95565910  0.79394922     0.32700
O4024       O  0.78018179  0.96852875  0.78103042    -1.29900
H4025       H  0.70765226  0.54514965  0.79530743     0.32700
O4026       O  0.72012421  0.53218803  0.78238412    -1.31200
O4027       O  0.69885737  0.66194102  0.00219863    -0.86700
O4028       O  0.69840170  0.83559361  0.99990752    -0.86900
O4029       O  0.66177602  0.74952855  0.54847680    -0.88500
O4030       O  0.66176566  0.74720207  0.95025243    -0.87300
O4031       O  0.69870429  0.74731310  0.91317430    -0.86900
O4032       O  0.69850270  0.74812571  0.58603729    -0.88200
O4033       O  0.66164356  0.79835368  0.99910844    -0.86700
O4034       O  0.66180496  0.69909542  0.00352138    -0.86300
Zr4035     Zr  0.68712598  0.74871797  0.00000375     2.84300
O4036       O  0.71730075  0.77994410  0.96880107    -1.08300
O4037       O  0.71828359  0.71729122  0.53067920    -1.09000
C4038       C  0.67075711  0.67083041  0.00380221     1.06400
C4039       C  0.67034183  0.82662891  0.99940096     1.06400
C4040       C  0.67040622  0.74901462  0.57683543     1.09300
C4041       C  0.67061340  0.74671955  0.92198370     1.07100
H4042       H  0.70521915  0.79231012  0.54298277     0.32700
O4043       O  0.71815299  0.77949913  0.53038065    -1.29200
H4044       H  0.70479577  0.70454637  0.95620740     0.32400
O4045       O  0.71750789  0.71755734  0.96875227    -1.30900
O4046       O  0.79706097  0.83745586  0.00051995    -0.86700
O4047       O  0.79758357  0.66100699  0.00042509    -0.88200
O4048       O  0.74733883  0.79827562  0.58736890    -0.86800
O4049       O  0.74593161  0.79822101  0.91198654    -0.86800
O4050       O  0.74959879  0.69870424  0.91388674    -0.86500
O4051       O  0.74860063  0.69795259  0.58533802    -0.86300
O4052       O  0.83584225  0.75027473  0.55011560    -0.86700
O4053       O  0.83431265  0.75014415  0.94863674    -0.86200
O4054       O  0.79887744  0.74842445  0.58740221    -0.87200
O4055       O  0.79716967  0.75069151  0.91147271    -0.86400
O4056       O  0.74833129  0.83523181  0.54977563    -0.86800
O4057       O  0.74989043  0.66070763  0.54819133    -0.86500
O4058       O  0.74779503  0.66137862  0.95098837    -0.86200
O4059       O  0.74647143  0.83522066  0.94943974    -0.86600
O4060       O  0.83412310  0.80033015  0.00072281    -0.86900
O4061       O  0.83436023  0.69823113  0.00012838    -0.88200
Zr4062     Zr  0.74823033  0.81071280  0.99987172     2.83100
Zr4063     Zr  0.74853770  0.68717975  0.00012315     2.83500
Zr4064     Zr  0.74890405  0.74854258  0.56167605     2.84100
Zr4065     Zr  0.74834415  0.74889118  0.93811157     2.83400
Zr4066     Zr  0.81048343  0.74925397  0.99968874     2.84200
O4067       O  0.77952511  0.71792349  0.96892668    -1.08800
O4068       O  0.77963033  0.77983267  0.53091764    -1.08300
C4069       C  0.82523809  0.82876274  0.00093355     1.06400
C4070       C  0.82564012  0.66980455  0.00053036     1.09000
C4071       C  0.74749175  0.82646465  0.57815714     1.06600
C4072       C  0.74563223  0.82646615  0.92101770     1.06900
C4073       C  0.74878483  0.67050200  0.92288395     1.06500
C4074       C  0.74925429  0.66964906  0.57637482     1.06100
C4075       C  0.82701710  0.74946783  0.57845552     1.06500
C4076       C  0.82531141  0.75085286  0.92022017     1.06000
H4077       H  0.79301227  0.70500301  0.54348834     0.32700
O4078       O  0.78019379  0.71780393  0.53073202    -1.29900
H4079       H  0.79165261  0.79317781  0.95591495     0.32700
O4080       O  0.77931419  0.78015738  0.96874453    -1.31200
C4081       C  0.74424034  0.59355592  0.61864092    -0.12500
C4082       C  0.75192516  0.60253438  0.64868689     0.04500
C4083       C  0.75982047  0.63343472  0.65429858    -0.07800
C4084       C  0.75797271  0.65472447  0.63051050    -0.08500
C4085       C  0.74988043  0.64588469  0.60056080    -0.03100
C4086       C  0.74340938  0.61464655  0.59462123     0.03800
N4087       N  0.73577661  0.60372066  0.56457256     0.66300
H4088       H  0.73880008  0.56986431  0.61351283     0.15200
H4089       H  0.76375431  0.67831581  0.63549810     0.14900
N4090       N  0.77173308  0.64333976  0.68326853     0.74000
O4091       O  0.75570651  0.58965900  0.54908133    -0.39500
O4092       O  0.70811524  0.60139302  0.55698558    -0.39400
O4093       O  0.79981009  0.64002142  0.68866701    -0.40100
O4094       O  0.75644293  0.66172434  0.69955587    -0.40200
C4095       C  0.76432236  0.87764454  0.59646362    -0.12500
C4096       C  0.74748170  0.85086233  0.60185966     0.04500
C4097       C  0.73160825  0.84785692  0.62988917    -0.07800
C4098       C  0.73364417  0.87102849  0.65213423    -0.08500
C4099       C  0.75052648  0.89782939  0.64676828    -0.03100
C4100       C  0.76586609  0.90108703  0.61842500     0.03800
N4101       N  0.78391867  0.92752027  0.61183227     0.66300
H4102       H  0.77683578  0.88025501  0.57517592     0.15200
H4103       H  0.72098004  0.86850349  0.67333906     0.14900
N4104       N  0.71159834  0.82259306  0.63527442     0.74000
O4105       O  0.77376280  0.94746411  0.59344099    -0.39500
O4106       O  0.81202628  0.92703770  0.61796573    -0.39400
O4107       O  0.71826325  0.80312513  0.65566527    -0.40100
O4108       O  0.68467373  0.82379028  0.62509717    -0.40200
C4109       C  0.73906707  0.86883004  0.84453529    -0.12500
C4110       C  0.74835692  0.89852532  0.85272964     0.04500
C4111       C  0.75611780  0.90433411  0.88376661    -0.07800
C4112       C  0.75449961  0.88069755  0.90541403    -0.08500
C4113       C  0.74526839  0.85095099  0.89718232    -0.03100
C4114       C  0.73686097  0.84537270  0.86630234     0.03800
N4115       N  0.72336989  0.81705916  0.85703647     0.66300
H4116       H  0.73264762  0.86385257  0.82108432     0.15200
H4117       H  0.76088155  0.88574818  0.92888334     0.14900
N4118       N  0.76669823  0.93371433  0.89372844     0.74000
O4119       O  0.69482333  0.81444163  0.85882348    -0.39500
O4120       O  0.73802030  0.79914900  0.83964983    -0.39400
O4121       O  0.74953207  0.95045578  0.90990243    -0.40100
O4122       O  0.79478392  0.93966668  0.89240986    -0.40200
C4123       C  0.73672179  0.59686205  0.87869437    -0.12500
C4124       C  0.75410866  0.60249497  0.85238905     0.04500
C4125       C  0.76970037  0.63056270  0.84945905    -0.07800
C4126       C  0.76751699  0.65243826  0.87273136    -0.08500
C4127       C  0.74990395  0.64688167  0.89893574    -0.03100
C4128       C  0.73427412  0.61881585  0.90178229     0.03800
N4129       N  0.71372168  0.61321515  0.92647315     0.66300
H4130       H  0.72394158  0.57570741  0.88087238     0.15200
H4131       H  0.78005770  0.67372304  0.87046174     0.14900
N4132       N  0.78875057  0.63681923  0.82370061     0.74000
O4133       O  0.68575901  0.61859316  0.92227891    -0.39500
O4134       O  0.72169815  0.59520728  0.94772828    -0.39400
O4135       O  0.77972693  0.65568963  0.80365719    -0.40100
O4136       O  0.81672685  0.63028484  0.82536893    -0.40200
C4137       C  0.90442478  0.62018181  0.73922918    -0.12500
C4138       C  0.89677642  0.64990170  0.74918147     0.04500
C4139       C  0.86631541  0.65597690  0.75791954    -0.07800
C4140       C  0.84464810  0.63257395  0.75672139    -0.08500
C4141       C  0.85249102  0.60263264  0.74774486    -0.03100
C4142       C  0.88278746  0.59670789  0.73842318     0.03800
N4143       N  0.89189049  0.56739472  0.72689886     0.66300
H4144       H  0.92737604  0.61503135  0.73161864     0.15200
H4145       H  0.82154659  0.63789544  0.76353062     0.14900
N4146       N  0.85700609  0.68538280  0.76914744     0.74000
O4147       O  0.89286565  0.56315810  0.69821937    -0.39500
O4148       O  0.90570239  0.54901012  0.74449096    -0.39400
O4149       O  0.84076308  0.70244171  0.75233504    -0.40100
O4150       O  0.85881367  0.69097432  0.79755755    -0.40200
C4151       C  0.87858254  0.90406892  0.76306918    -0.12500
C4152       C  0.85090859  0.89776657  0.74821731     0.04500
C4153       C  0.84704715  0.86928894  0.73333409    -0.07800
C4154       C  0.87039975  0.84734484  0.73447576    -0.08500
C4155       C  0.89821391  0.85360758  0.74940124    -0.03100
C4156       C  0.90223007  0.88256828  0.76356257     0.03800
N4157       N  0.92978703  0.89045026  0.77922307     0.66300
H4158       H  0.88191354  0.92586989  0.77463567     0.15200
H4159       H  0.86707664  0.82561194  0.72279995     0.14900
N4160       N  0.82033951  0.86306760  0.71550237     0.74000
O4161       O  0.95047944  0.90417139  0.76462611    -0.39500
O4162       O  0.92996084  0.89137327  0.80821246    -0.39400
O4163       O  0.81602565  0.87699301  0.69044138    -0.40100
O4164       O  0.79949922  0.84646793  0.72642027    -0.40200
C4165       C  0.63033357  0.65618134  0.74559663    -0.12500
C4166       C  0.60002328  0.64696296  0.75032165     0.04500
C4167       C  0.59427425  0.61538027  0.75523040    -0.07800
C4168       C  0.61838380  0.59425270  0.75498656    -0.08500
C4169       C  0.64869395  0.60347777  0.75009041    -0.03100
C4170       C  0.65440787  0.63506549  0.74523045     0.03800
N4171       N  0.68426775  0.64631318  0.73888020     0.66300
H4172       H  0.63564408  0.68012270  0.74175100     0.15200
H4173       H  0.61310392  0.57031247  0.75895030     0.14900
N4174       N  0.56431594  0.60414444  0.76122205     0.74000
O4175       O  0.69241537  0.64938023  0.71126953    -0.39500
O4176       O  0.69869118  0.66034909  0.75969120    -0.39400
O4177       O  0.54957694  0.59137426  0.73982848    -0.40100
O4178       O  0.55606200  0.60011411  0.78868262    -0.40200
C4179       C  0.63006542  0.84446678  0.75282563    -0.12500
C4180       C  0.59982721  0.85350335  0.74745628     0.04500
C4181       C  0.59378063  0.88511140  0.74246456    -0.07800
C4182       C  0.61757650  0.90645665  0.74384256    -0.08500
C4183       C  0.64782377  0.89739368  0.74953364    -0.03100
C4184       C  0.65381666  0.86573704  0.75407507     0.03800
N4185       N  0.68362879  0.85444831  0.76088677     0.66300
H4186       H  0.63559989  0.82049598  0.75628028     0.15200
H4187       H  0.61221893  0.93037435  0.73960079     0.14900
N4188       N  0.56407629  0.89610429  0.73447278     0.74000
O4189       O  0.68959338  0.84648793  0.78809626    -0.39500
O4190       O  0.69973787  0.84393256  0.73929393    -0.39400
O4191       O  0.55161366  0.91619714  0.75118087    -0.40100
O4192       O  0.55468950  0.89260536  0.70726687    -0.40200
C4193       C  0.87631469  0.76997704  0.59885063    -0.12500
C4194       C  0.85125908  0.75014723  0.60241386     0.04500
C4195       C  0.84994010  0.73141607  0.62885371    -0.07800
C4196       C  0.87294831  0.73306614  0.65111474    -0.08500
C4197       C  0.89782844  0.75279297  0.64755251    -0.03100
C4198       C  0.89938546  0.77158105  0.62125553     0.03800
N4199       N  0.92353608  0.79328117  0.61774034     0.66300
H4200       H  0.87761097  0.78482712  0.57893548     0.15200
H4201       H  0.87177245  0.71810315  0.67096758     0.14900
N4202       N  0.82638466  0.70926311  0.63275544     0.74000
O4203       O  0.94541445  0.78735605  0.59991223    -0.39500
O4204       O  0.92515017  0.81616542  0.63549910    -0.39400
O4205       O  0.83041524  0.68246406  0.62244398    -0.40100
O4206       O  0.80666621  0.71365881  0.65335589    -0.40200
C4207       C  0.59555812  0.76193101  0.61958514    -0.12500
C4208       C  0.60110382  0.74640363  0.64727731     0.04500
C4209       C  0.62951670  0.73151719  0.65135187    -0.07800
C4210       C  0.65175837  0.73316628  0.62836736    -0.08500
C4211       C  0.64626731  0.74882419  0.60073558    -0.03100
C4212       C  0.61761744  0.76320547  0.59641238     0.03800
N4213       N  0.61070128  0.78004270  0.56910498     0.66300
H4214       H  0.57405869  0.77371443  0.61601301     0.15200
H4215       H  0.67322172  0.72129686  0.63187403     0.14900
N4216       N  0.63560163  0.71300892  0.67774057     0.74000
O4217       O  0.59559801  0.76715480  0.54804910    -0.39500
O4218       O  0.61242288  0.80895354  0.56955870    -0.39400
O4219       O  0.63026658  0.68458727  0.67637483    -0.40100
O4220       O  0.65331424  0.72302375  0.69829075    -0.40200
C4221       C  0.65507656  0.75430035  0.86751374    -0.12500
C4222       C  0.64691479  0.74614791  0.89758506     0.04500
C4223       C  0.61615951  0.73888281  0.90367446    -0.07800
C4224       C  0.59436053  0.74149259  0.88037860    -0.08500
C4225       C  0.60238945  0.75035384  0.85045831    -0.03100
C4226       C  0.63329923  0.75697131  0.84421204     0.03800
N4227       N  0.64287352  0.76838214  0.81503359     0.66300
H4228       H  0.67854931  0.75935202  0.86200716     0.15200
H4229       H  0.57097303  0.73589840  0.88578698     0.14900
N4230       N  0.60679871  0.72706907  0.93277153     0.74000
O4231       O  0.64158190  0.79688034  0.81011264    -0.39500
O4232       O  0.65919755  0.75172343  0.79791396    -0.39400
O4233       O  0.59072693  0.74353839  0.95028321    -0.40100
O4234       O  0.60849129  0.69856096  0.93762177    -0.40200
C4235       C  0.86820362  0.76206683  0.84434652    -0.12500
C4236       C  0.89690854  0.74950472  0.85154132     0.04500
C4237       C  0.90138953  0.73734639  0.88127913    -0.07800
C4238       C  0.87806327  0.73880260  0.90313316    -0.08500
C4239       C  0.84937823  0.75121237  0.89603401    -0.03100
C4240       C  0.84451591  0.76281335  0.86599906     0.03800
N4241       N  0.81590680  0.77573446  0.85698360     0.66300
H4242       H  0.86403738  0.77161168  0.82173348     0.15200
H4243       H  0.88223163  0.72901618  0.92564462     0.14900
N4244       N  0.92894385  0.72200448  0.88947205     0.74000
O4245       O  0.81259208  0.80452019  0.85712921    -0.39500
O4246       O  0.79747538  0.75946681  0.84180486    -0.39400
O4247       O  0.94492325  0.73278645  0.91103295    -0.40100
O4248       O  0.93277958  0.69447189  0.88122338    -0.40200
C4249       C  0.87980313  0.84397868  0.00750169    -0.12500
C4250       C  0.85084073  0.85179912  0.50053203     0.04500
C4251       C  0.84681442  0.88125318  0.48750083    -0.07800
C4252       C  0.87057165  0.90268553  0.48839938    -0.08500
C4253       C  0.89879923  0.89580687  0.50212935    -0.03100
C4254       C  0.90371439  0.86527244  0.00829259     0.03800
N4255       N  0.93342570  0.85424313  0.01606646     0.66300
H4256       H  0.88516143  0.82011629  0.01203796     0.15200
H4257       H  0.86694950  0.92482645  0.47764647     0.14900
N4258       N  0.81934807  0.88948199  0.47187374     0.74000
O4259       O  0.94246582  0.85650566  0.04352172    -0.39500
O4260       O  0.94608135  0.83491122  0.99863945    -0.39400
O4261       O  0.80019441  0.90645603  0.48530533    -0.40100
O4262       O  0.80472550  0.90030599  0.96457492    -0.40200
C4263       C  0.87081606  0.59625548  0.48558266    -0.12500
C4264       C  0.89879773  0.60306079  0.49971119     0.04500
C4265       C  0.90422380  0.63331179  0.99659378    -0.07800
C4266       C  0.88037778  0.65467982  0.99685813    -0.08500
C4267       C  0.85120391  0.64703492  0.49804407    -0.03100
C4268       C  0.84720632  0.61782277  0.48448045     0.03800
N4269       N  0.81998689  0.61004888  0.46817878     0.66300
H4270       H  0.86737139  0.57417781  0.47460116     0.15200
H4271       H  0.88601999  0.67866915  0.99374920     0.14900
N4272       N  0.93450968  0.64457102  0.99276129     0.74000
O4273       O  0.81870413  0.61463941  0.43957638    -0.39500
O4274       O  0.80107583  0.59207849  0.48042020    -0.39400
O4275       O  0.94463675  0.64881715  0.96598972    -0.40100
O4276       O  0.94787698  0.65691895  0.01529536    -0.40200
C4277       C  0.65386039  0.87880014  0.51119336    -0.12500
C4278       C  0.64677862  0.85024057  0.49797856     0.04500
C4279       C  0.61635704  0.84537319  0.98950499    -0.07800
C4280       C  0.59457266  0.86875691  0.99101972    -0.08500
C4281       C  0.60245600  0.89768318  0.50143413    -0.03100
C4282       C  0.63215942  0.90231321  0.51317707     0.03800
N4283       N  0.64041941  0.93009489  0.52854966     0.66300
H4284       H  0.67629957  0.88280054  0.52081584     0.15200
H4285       H  0.57184205  0.86404616  0.98248595     0.14900
N4286       N  0.60771213  0.81680179  0.97596668     0.74000
O4287       O  0.63902245  0.93125002  0.55749323    -0.39500
O4288       O  0.65612605  0.95082511  0.00863768    -0.39400
O4289       O  0.58938419  0.80014519  0.48540502    -0.40100
O4290       O  0.61036843  0.81329854  0.94730554    -0.40200
C4291       C  0.59594902  0.62865129  0.51076140    -0.12500
C4292       C  0.60341302  0.59874778  0.50148895     0.04500
C4293       C  0.62911499  0.59662302  0.98719779    -0.07800
C4294       C  0.65570234  0.61551163  0.49354672    -0.08500
C4295       C  0.64805839  0.64571894  0.50221554    -0.03100
C4296       C  0.61770872  0.65194476  0.51132148     0.03800
N4297       N  0.60861587  0.68137198  0.52261881     0.66300
H4298       H  0.57301900  0.63407449  0.51825586     0.15200
H4299       H  0.67876089  0.60993964  0.48672996     0.14900
N4300       N  0.63393614  0.57040636  0.96793406     0.74000
O4301       O  0.59718513  0.69917019  0.02810977    -0.39500
O4302       O  0.60975960  0.68644327  0.55115623    -0.39400
O4303       O  0.61900048  0.56755484  0.94327036    -0.40100
O4304       O  0.65584591  0.54406533  0.50068607    -0.40200
C4305       C  0.87425542  0.51714037  0.90190801    -0.12500
C4306       C  0.90028899  0.49896446  0.89745110     0.04500
C4307       C  0.90239304  0.98313121  0.86813402    -0.07800
C4308       C  0.87873046  0.98384483  0.84642320    -0.08500
C4309       C  0.85381878  0.50123814  0.85237034    -0.03100
C4310       C  0.85128575  0.51864962  0.87964465     0.03800
N4311       N  0.82663404  0.53964346  0.88420447     0.66300
H4312       H  0.87207764  0.53098901  0.92251765     0.15200
H4313       H  0.88152809  0.97125536  0.82510302     0.14900
N4314       N  0.92911298  0.96537879  0.86177820     0.74000
O4315       O  0.80555690  0.53273336  0.90258637    -0.39500
O4316       O  0.82980863  0.56726067  0.87612985    -0.39400
O4317       O  0.93402679  0.94074845  0.87622655    -0.40100
O4318       O  0.94925686  0.97585488  0.84404077    -0.40200
C4319       C  0.59603494  0.01274544  0.87055411    -0.12500
C4320       C  0.60445188  0.49777138  0.90112095     0.04500
C4321       C  0.63377577  0.48492942  0.90587594    -0.07800
C4322       C  0.65589186  0.48670773  0.88266518    -0.08500
C4323       C  0.64964364  0.50110645  0.85445065    -0.03100
C4324       C  0.61758052  0.01422466  0.84686761     0.03800
N4325       N  0.60922357  0.02932635  0.81894050     0.66300
H4326       H  0.57360841  0.02242046  0.86650547     0.15200
H4327       H  0.67797897  0.47623294  0.88662360     0.14900
N4328       N  0.64138027  0.46924677  0.93368456     0.74000
O4329       O  0.59513634  0.01448306  0.79846816    -0.39500
O4330       O  0.61596011  0.56037583  0.82367590    -0.39400
O4331       O  0.64106540  0.94565989  0.93494605    -0.40100
O4332       O  0.65648541  0.48317942  0.95404821    -0.40200
C4333       C  0.62005823  0.98866703  0.65401523    -0.12500
C4334       C  0.64675686  0.50260188  0.64984159     0.04500
C4335       C  0.65128642  0.51270569  0.61932447    -0.07800
C4336       C  0.62753135  0.51099306  0.59789340    -0.08500
C4337       C  0.59853245  0.50007802  0.60596795    -0.03100
C4338       C  0.59611404  0.98787128  0.63275530     0.03800
N4339       N  0.56863782  0.97241491  0.64100559     0.66300
H4340       H  0.61654877  0.97835050  0.67637793     0.15200
H4341       H  0.63177102  0.51916956  0.57478331     0.14900
N4342       N  0.67906263  0.52685948  0.61000922     0.74000
O4343       O  0.54990054  0.98551095  0.65868018    -0.39500
O4344       O  0.56655302  0.94386340  0.63654333    -0.39400
O4345       O  0.69758828  0.51185021  0.59368326    -0.40100
O4346       O  0.68068233  0.55576395  0.61038337    -0.40200
C4347       C  0.84343155  0.51083335  0.61878845    -0.12500
C4348       C  0.85164498  0.50085269  0.64838380     0.04500
C4349       C  0.88249517  0.98672350  0.65355785    -0.07800
C4350       C  0.90394184  0.98783885  0.62983014    -0.08500
C4351       C  0.89524801  0.50292387  0.60030772    -0.03100
C4352       C  0.86470125  0.51192895  0.59488073     0.03800
N4353       N  0.85476987  0.52276511  0.56552905     0.66300
H4354       H  0.82027569  0.51814892  0.61405191     0.15200
H4355       H  0.92705017  0.98050916  0.63478154     0.14900
N4356       N  0.89204357  0.97515174  0.68276804     0.74000
O4357       O  0.84002521  0.99867444  0.54793677    -0.39500
O4358       O  0.85391048  0.55129217  0.56057912    -0.39400
O4359       O  0.89092904  0.94663147  0.68764796    -0.40100
O4360       O  0.90609777  0.49786521  0.70117377    -0.40200
C4361       C  0.50982968  0.62901192  0.90349100    -0.12500
C4362       C  0.49580702  0.60081331  0.89721205     0.04500
C4363       C  0.99305531  0.59339522  0.86501508    -0.07800
C4364       C  0.99297940  0.61729667  0.84349336    -0.08500
C4365       C  0.49769666  0.64787174  0.85218708    -0.03100
C4366       C  0.51120962  0.65221274  0.88138521     0.03800
N4367       N  0.52870439  0.67893198  0.88825598     0.66300
H4368       H  0.52094067  0.63277067  0.92544522     0.15200
H4369       H  0.98827869  0.61171691  0.81967847     0.14900
N4370       N  0.98795669  0.56284570  0.85415232     0.74000
O4371       O  0.51666701  0.70048635  0.90340695    -0.39500
O4372       O  0.55734752  0.67737924  0.88641451    -0.39400
O4373       O  0.96105955  0.55388181  0.84929464    -0.40100
O4374       O  0.00989477  0.54795170  0.84272246    -0.40200
C4375       C  0.51247045  0.90410623  0.86937318    -0.12500
C4376       C  0.50034698  0.89738916  0.89829964     0.04500
C4377       C  0.98801854  0.86871878  0.90320756    -0.07800
C4378       C  0.98904689  0.84623842  0.88039141    -0.08500
C4379       C  0.50269487  0.85198085  0.85216654    -0.03100
C4380       C  0.51374147  0.88183060  0.84642767     0.03800
N4381       N  0.52726498  0.88983175  0.81779700     0.66300
H4382       H  0.52153564  0.92671250  0.86455673     0.15200
H4383       H  0.97743059  0.82466830  0.88428487     0.14900
N4384       N  0.97196026  0.86237445  0.93094677     0.74000
O4385       O  0.51169516  0.90480923  0.79856285    -0.39500
O4386       O  0.55590578  0.88929308  0.81535619    -0.39400
O4387       O  0.94709450  0.87589081  0.93651713    -0.40100
O4388       O  0.98506242  0.84722662  0.95183731    -0.40200
C4389       C  0.98861637  0.90558042  0.63137654    -0.12500
C4390       C  0.50184476  0.89858452  0.60248971     0.04500
C4391       C  0.51631327  0.87000151  0.59778381    -0.07800
C4392       C  0.51452530  0.84738717  0.62045156    -0.08500
C4393       C  0.49935880  0.85311085  0.64832000    -0.03100
C4394       C  0.98749104  0.88341240  0.65438726     0.03800
N4395       N  0.97264548  0.89113292  0.68257190     0.66300
H4396       H  0.97824766  0.92779187  0.63566288     0.15200
H4397       H  0.52590085  0.82560134  0.61661705     0.14900
N4398       N  0.53407205  0.86419215  0.57081687     0.74000
O4399       O  0.94452215  0.88591565  0.68532887    -0.39500
O4400       O  0.98531010  0.90974884  0.70077456    -0.39400
O4401       O  0.55821061  0.87915861  0.56616208    -0.40100
O4402       O  0.52418167  0.84628487  0.55029886    -0.40200
C4403       C  0.01671586  0.62830659  0.59737024    -0.12500
C4404       C  0.49813404  0.60238352  0.60191599     0.04500
C4405       C  0.48154335  0.59941794  0.62954093    -0.07800
C4406       C  0.48313055  0.62253757  0.65177022    -0.08500
C4407       C  0.50083777  0.64885910  0.64706126    -0.03100
C4408       C  0.01855010  0.65138108  0.61969440     0.03800
N4409       N  0.03955746  0.67597761  0.61520769     0.66300
H4410       H  0.03058036  0.63019825  0.57687058     0.15200
H4411       H  0.46978732  0.62020454  0.67257390     0.14900
N4412       N  0.46192226  0.57382608  0.63487776     0.74000
O4413       O  0.06687230  0.67258869  0.62369014    -0.39500
O4414       O  0.03299720  0.69709711  0.59650037    -0.39400
O4415       O  0.46919817  0.55414702  0.65485873    -0.40100
O4416       O  0.43485184  0.57472516  0.62508793    -0.40200
loop_ 
_geom_bond_atom_site_label_1 
_geom_bond_atom_site_label_2 
_geom_bond_distance 
_geom_bond_site_symmetry_2 
_ccdc_geom_bond_type 
O1          Zr37   2.414   1_545  S
O1           C12   1.287       .  A
O2          Zr36   2.435   1_545  S
O2           C13   1.292   1_455  A
O3           Zr9   2.436   1_455  S
O3           C14   1.292   1_556  A
O4        Zr2217   2.431       .  S
O4           C15   1.291       .  A
O5          Zr39   2.451   1_545  S
O5           C15   1.296       .  A
O6          Zr38   2.428   1_545  S
O6           C14   1.290       .  A
O7         Zr561   2.445       .  S
O7           C13   1.294       .  A
O8           Zr9   2.448   1_454  S
O8           C12   1.295   1_455  A
Zr9        O2212   2.435       .  S
Zr9         O559   2.452   1_655  S
Zr9          O11   2.342   1_656  S
Zr9        O2770   2.339       .  S
Zr9        O2227   2.346   1_556  S
Zr9         O569   2.336   1_655  S
O10       Zr2769   2.335       .  S
O10       Zr2244   2.340   1_545  S
O10        Zr591   2.338   1_545  S
O11         Zr37   2.346   1_445  S
O11         Zr38   2.338   1_545  S
C12         C540   1.479       .  S
C13         C498   1.482   1_655  S
C14         C428   1.480       .  S
C15         C400   1.489       .  S
H16          O17   0.949       .  S
O17         Zr36   2.338   1_545  S
O17        Zr561   2.344   1_455  S
O17        Zr590   2.339       .  S
H18          O19   0.977       .  S
O19         Zr39   2.340   1_544  S
O19       Zr2217   2.347   1_554  S
O19       Zr2245   2.343   1_545  S
O20       Zr1140   2.413   1_655  S
O20          C43   1.288       .  A
O21       Zr1141   2.425       .  S
O21          C44   1.290       .  A
O22        Zr590   2.440   1_565  S
O22          C45   1.292       .  A
O23        Zr591   2.429       .  S
O23          C46   1.291       .  A
O24         Zr39   2.425   1_554  S
O24          C47   1.289       .  A
O25         Zr38   2.440       .  S
O25          C48   1.294       .  A
O26         Zr40   2.438       .  S
O26          C49   1.294       .  A
O27       Zr2248   2.442       .  S
O27          C50   1.292       .  A
O28       Zr1142   2.423       .  S
O28          C49   1.289       .  A
O29       Zr1143   2.455   1_554  S
O29          C50   1.297       .  A
O30         Zr36   2.457       .  S
O30          C45   1.297       .  A
O31         Zr37   2.445   1_455  S
O31          C48   1.293       .  A
O32       Zr2245   2.455       .  S
O32          C47   1.296       .  A
O33       Zr2244   2.442       .  S
O33          C46   1.293       .  A
O34        Zr592   2.439       .  S
O34          C43   1.293       .  A
O35         Zr40   2.417       .  S
O35          C44   1.289   1_455  A
Zr36       O1124   2.424       .  S
Zr36       O2241   2.442   1_455  S
Zr36       O2218   2.341   1_465  S
Zr36       O1146   2.334       .  S
Zr36       O3366   2.346   1_455  S
Zr37       O1125   2.419       .  S
Zr37       O2240   2.454       .  S
Zr37       O2227   2.341   1_565  S
Zr37       O3353   2.331       .  S
Zr37       O1156   2.335   1_655  S
Zr38        O574   2.443   1_554  S
Zr38       O1132   2.420       .  S
Zr38        O569   2.337   1_564  S
Zr38       O1698   2.340   1_554  S
Zr38       O1156   2.333       .  S
Zr39        O575   2.423       .  S
Zr39       O1133   2.451       .  S
Zr39        O562   2.335   1_565  S
Zr39       O1145   2.338   1_556  S
Zr39       O1710   2.338       .  S
Zr40       O2235   2.442   1_455  S
Zr40        O586   2.439   1_554  S
Zr40         O52   2.340       .  S
Zr40       O2249   2.340   1_455  S
Zr40        O594   2.335   1_554  S
Zr40       O2814   2.334   1_454  S
O41       Zr3349   2.336       .  S
O41       Zr1143   2.334   1_554  S
O41       Zr2248   2.340       .  S
O42       Zr1140   2.339       .  S
O42       Zr1694   2.341       .  S
O42        Zr592   2.336   1_455  S
C43         C512   1.475       .  S
C44         C526   1.467       .  S
C45         C456   1.491       .  S
C46         C442   1.478       .  S
C47         C487   1.489       .  S
C48         C473   1.484       .  S
C49         C417   1.482       .  S
C50         C389   1.499       .  S
H51          O52   0.957       .  S
O52       Zr1141   2.341   1_455  S
O52       Zr1142   2.336       .  S
H53          O54   0.962       .  S
O54       Zr3348   2.345       .  S
O54       Zr1695   2.340       .  S
O54       Zr2800   2.338       .  S
O55         Zr91   2.432       .  S
O55          C66   1.291       .  A
O56         Zr90   2.447   1_455  S
O56          C67   1.294       .  A
O57         Zr63   2.438   1_455  S
O57          C68   1.291       .  A
O58       Zr2271   2.444       .  S
O58          C69   1.295       .  A
O59         Zr93   2.434       .  S
O59          C69   1.291       .  A
O60         Zr92   2.452       .  S
O60          C68   1.296       .  A
O61         Zr63   2.437       .  S
O61          C67   1.293   1_655  A
O62         Zr63   2.437       .  S
O62          C66   1.293       .  A
Zr63       O2266   2.441       .  S
Zr63         O65   2.342   1_655  S
Zr63         O71   2.339   1_655  S
Zr63       O2272   2.337       .  S
Zr63       O2281   2.337       .  S
O64         Zr93   2.339       .  S
O64       Zr2271   2.336       .  S
O64       Zr2298   2.340       .  S
O65         Zr91   2.335   1_455  S
O65         Zr92   2.337       .  S
C66         C543   1.480       .  S
C67         C501   1.485       .  S
C68         C302   1.498       .  S
C69         C274   1.494       .  S
H70          O71   0.965       .  S
O71         Zr90   2.339   1_455  S
O71         Zr92   2.340       .  S
H72          O73   0.969       .  S
O73         Zr93   2.341       .  S
O73       Zr2271   2.339       .  S
O73       Zr2299   2.347       .  S
O74         Zr90   2.439   1_455  S
O74          C97   1.294       .  A
O75         Zr91   2.436       .  S
O75          C98   1.292       .  A
O76         Zr92   2.413       .  S
O76          C99   1.287       .  A
O77         Zr93   2.444       .  S
O77         C100   1.294       .  A
O78         Zr93   2.439       .  S
O78         C101   1.293       .  A
O79         Zr92   2.423       .  S
O79         C102   1.289       .  A
O80         Zr94   2.436   1_455  S
O80         C103   1.291       .  A
O81       Zr2302   2.439       .  S
O81         C104   1.292       .  A
O82         Zr92   2.462       .  S
O82         C103   1.298       .  A
O83         Zr93   2.433       .  S
O83         C104   1.291       .  A
O84         Zr90   2.441   1_455  S
O84          C99   1.295       .  A
O85         Zr91   2.453   1_455  S
O85         C102   1.296       .  A
O86       Zr2299   2.438       .  S
O86         C101   1.292       .  A
O87       Zr2298   2.448       .  S
O87         C100   1.294       .  A
O88         Zr94   2.425   1_455  S
O88          C97   1.289       .  A
O89         Zr94   2.419       .  S
O89          C98   1.288       .  A
Zr90       O2295   2.451       .  S
Zr90         O96   2.340   1_655  S
Zr90       O2272   2.342       .  S
Zr90       O2316   2.344       .  S
Zr91       O2294   2.434       .  S
Zr91        O106   2.336   1_655  S
Zr91       O2281   2.345       .  S
Zr91       O2303   2.339       .  S
Zr92         O96   2.341       .  S
Zr92        O106   2.337       .  S
Zr93         O95   2.338       .  S
Zr93        O108   2.341       .  S
Zr94       O2289   2.440       .  S
Zr94         O96   2.337   1_655  S
Zr94        O106   2.344   1_655  S
Zr94       O2303   2.332       .  S
Zr94       O2316   2.342       .  S
O95       Zr2299   2.339       .  S
O95       Zr2302   2.334       .  S
C97         C515   1.480       .  S
C98         C529   1.473       .  S
C99         C361   1.484       .  S
C100        C372   1.488       .  S
C101        C333   1.481       .  S
C102        C344   1.483       .  S
C103        C316   1.491       .  S
C104        C291   1.477       .  S
H105        O106   0.967       .  S
H107        O108   0.966       .  S
O108      Zr2298   2.343       .  S
O108      Zr2302   2.342       .  S
O109       Zr145   2.428       .  S
O109        C120   1.290       .  A
O110       Zr144   2.427       .  S
O110        C121   1.291       .  A
O111       Zr117   2.434       .  S
O111        C122   1.291       .  A
O112      Zr1221   2.431   1_545  S
O112        C123   1.292       .  A
O113       Zr147   2.419       .  S
O113        C123   1.288       .  A
O114       Zr146   2.439       .  S
O114        C122   1.293       .  A
O115       Zr117   2.449       .  S
O115        C121   1.294       .  A
O116       Zr117   2.439       .  S
O116        C120   1.293       .  A
Zr117      O1216   2.434       .  S
Zr117       O119   2.336       .  S
Zr117       O125   2.346       .  S
Zr117      O1222   2.335       .  S
Zr117      O1231   2.344       .  S
O118       Zr147   2.337       .  S
O118      Zr1221   2.333   1_545  S
O118      Zr1248   2.343   1_545  S
O119       Zr145   2.335       .  S
O119       Zr146   2.335       .  S
C120       C1588   1.483       .  S
C121       C1574   1.485       .  S
C122        C235   1.478       .  S
C123        C218   1.477       .  S
H124        O125   0.964       .  S
O125       Zr144   2.342       .  S
O125       Zr146   2.341       .  S
H126        O127   0.965       .  S
O127       Zr147   2.338       .  S
O127      Zr1221   2.339   1_545  S
O127      Zr1249   2.345   1_545  S
O128       Zr144   2.434       .  S
O128        C151   1.291       .  A
O129       Zr145   2.432       .  S
O129        C152   1.291       .  A
O130       Zr146   2.450       .  S
O130        C153   1.294       .  A
O131       Zr147   2.450       .  S
O131        C154   1.294       .  A
O132       Zr147   2.443       .  S
O132        C155   1.294       .  A
O133       Zr146   2.440       .  S
O133        C156   1.293       .  A
O134       Zr148   2.423       .  S
O134        C157   1.289       .  A
O135      Zr1252   2.421   1_545  S
O135        C158   1.291       .  A
O136       Zr146   2.432       .  S
O136        C157   1.293       .  A
O137       Zr147   2.409       .  S
O137        C158   1.286       .  A
O138       Zr144   2.454       .  S
O138        C153   1.296       .  A
O139       Zr145   2.412       .  S
O139        C156   1.287       .  A
O140      Zr1249   2.426   1_545  S
O140        C155   1.289       .  A
O141      Zr1248   2.439   1_545  S
O141        C154   1.294       .  A
O142       Zr148   2.461       .  S
O142        C151   1.297       .  A
O143       Zr148   2.450       .  S
O143        C152   1.295       .  A
Zr144      O1245   2.447       .  S
Zr144       O150   2.333       .  S
Zr144      O1222   2.340       .  S
Zr144      O1266   2.341       .  S
Zr145      O1244   2.426       .  S
Zr145       O160   2.338       .  S
Zr145      O1231   2.338       .  S
Zr145      O1253   2.330       .  S
Zr146       O150   2.338       .  S
Zr146       O160   2.344       .  S
Zr147       O149   2.335       .  S
Zr147       O162   2.342       .  S
Zr148      O1239   2.426       .  S
Zr148       O150   2.338       .  S
Zr148       O160   2.344       .  S
Zr148      O1253   2.334       .  S
Zr148      O1266   2.339       .  S
O149      Zr1249   2.334   1_545  S
O149      Zr1252   2.332   1_545  S
C151       C1563   1.497       .  S
C152       C1549   1.484       .  S
C153        C319   1.493       .  S
C154        C305   1.498       .  S
C155        C277   1.491       .  S
C156        C288   1.470       .  S
C157        C246   1.481       .  S
C158        C260   1.471       .  S
H159        O160   0.966       .  S
H161        O162   0.966       .  S
O162      Zr1248   2.342   1_545  S
O162      Zr1252   2.336   1_545  S
O163       Zr199   2.463       .  S
O163        C174   1.297       .  A
O164       Zr198   2.448       .  S
O164        C175   1.294       .  A
O165       Zr723   2.425   1_554  S
O165        C176   1.289       .  A
O166       Zr171   2.419       .  S
O166        C177   1.287       .  A
O167       Zr201   2.442       .  S
O167        C177   1.295       .  A
O168       Zr200   2.452       .  S
O168        C176   1.296       .  A
O169       Zr171   2.431       .  S
O169        C175   1.290       .  A
O170       Zr171   2.426       .  S
O170        C174   1.289       .  A
Zr171       O717   2.417       .  S
Zr171       O172   2.336       .  S
Zr171       O181   2.341       .  S
Zr171       O725   2.343       .  S
Zr171       O731   2.334       .  S
O172       Zr198   2.338       .  S
O172       Zr201   2.345       .  S
O173       Zr200   2.337       .  S
O173       Zr723   2.336   1_554  S
O173       Zr751   2.337   1_554  S
C174        C983   1.488       .  S
C175        C966   1.487       .  S
C176        C347   1.484       .  S
C177        C358   1.485       .  S
H178        O179   0.966       .  S
O179       Zr200   2.338       .  S
O179       Zr723   2.337   1_554  S
O179       Zr750   2.339   1_554  S
H180        O181   0.965       .  S
O181       Zr199   2.333       .  S
O181       Zr201   2.339       .  S
O182       Zr198   2.429       .  S
O182        C205   1.290       .  A
O183       Zr199   2.443       .  S
O183        C206   1.293       .  A
O184       Zr200   2.428       .  S
O184        C207   1.290       .  A
O185       Zr201   2.419       .  S
O185        C208   1.289       .  A
O186       Zr201   2.428       .  S
O186        C209   1.291       .  A
O187       Zr200   2.433       .  S
O187        C210   1.292       .  A
O188       Zr754   2.450   1_554  S
O188        C211   1.295       .  A
O189       Zr202   2.440       .  S
O189        C212   1.294       .  A
O190       Zr200   2.452       .  S
O190        C211   1.295       .  A
O191       Zr201   2.457       .  S
O191        C212   1.295       .  A
O192       Zr750   2.443   1_554  S
O192        C207   1.294       .  A
O193       Zr751   2.418   1_554  S
O193        C210   1.288       .  A
O194       Zr199   2.417       .  S
O194        C209   1.287       .  A
O195       Zr198   2.439       .  S
O195        C208   1.294       .  A
O196       Zr202   2.469       .  S
O196        C205   1.300       .  A
O197       Zr202   2.451       .  S
O197        C206   1.296       .  A
Zr198       O744   2.448       .  S
Zr198       O216   2.348       .  S
Zr198       O731   2.330       .  S
Zr198       O756   2.340       .  S
Zr199       O745   2.410       .  S
Zr199       O203   2.339       .  S
Zr199       O725   2.340       .  S
Zr199       O766   2.346       .  S
Zr200       O204   2.340       .  S
Zr200       O214   2.340       .  S
Zr201       O203   2.327       .  S
Zr201       O216   2.346       .  S
Zr202       O740   2.445       .  S
Zr202       O203   2.341       .  S
Zr202       O216   2.339       .  S
Zr202       O756   2.335       .  S
Zr202       O766   2.342       .  S
O204       Zr750   2.335   1_554  S
O204       Zr754   2.335   1_554  S
C205        C938   1.501       .  S
C206        C955   1.492       .  S
C207        C232   1.477       .  S
C208        C249   1.481       .  S
C209        C263   1.477       .  S
C210        C221   1.478       .  S
C211        C330   1.491       .  S
C212        C375   1.490       .  S
H213        O214   0.966       .  S
O214       Zr751   2.344   1_554  S
O214       Zr754   2.346   1_554  S
H215        O216   0.965       .  S
C217        C218   1.403       .  A
C217        C222   1.394       .  A
C217        H224   1.082       .  S
C218        C219   1.413       .  A
C219        C220   1.394       .  A
C219        N226   1.430       .  S
C220        C221   1.403       .  A
C220        H225   1.081       .  S
C221        C222   1.413       .  A
C222        N223   1.430       .  S
N223        O227   1.262       .  A
N223        O228   1.262       .  A
N226        O230   1.262       .  A
N226        O229   1.262       .  A
C231        C232   1.403       .  A
C231        C236   1.399       .  A
C231        H238   1.084       .  S
C232        C233   1.412       .  A
C233        C234   1.398       .  A
C233        N240   1.430       .  S
C234        C235   1.404       .  A
C234        H239   1.084       .  S
C235        C236   1.413       .  A
C236        N237   1.429       .  S
N237        O241   1.262       .  A
N237        O242   1.262       .  A
N240        O244   1.262       .  A
N240        O243   1.262       .  A
C245        C246   1.404       .  A
C245        C250   1.395       .  A
C245        H252   1.083       .  S
C246        C247   1.414       .  A
C247        C248   1.395       .  A
C247        N254   1.429       .  S
C248        C249   1.404       .  A
C248        H253   1.083       .  S
C249        C250   1.414       .  A
C250        N251   1.429       .  S
N251        O255   1.261       .  A
N251        O256   1.262       .  A
N254        O258   1.262       .  A
N254        O257   1.262       .  A
C259        C260   1.400       .  A
C259        C264   1.389       .  A
C259        H266   1.084       .  S
C260        C261   1.412       .  A
C261        C262   1.394       .  A
C261        N268   1.430       .  S
C262        C263   1.404       .  A
C262        H267   1.081       .  S
C263        C264   1.413       .  A
C264        N265   1.426       .  S
N265        O269   1.260       .  A
N265        O270   1.261       .  A
N268        O272   1.261       .  A
N268        O271   1.261       .  A
C273        C274   1.407       .  A
C273        C278   1.399       .  A
C273        H280   1.083       .  S
C274        C275   1.417       .  A
C275        C276   1.398       .  A
C275        N282   1.429       .  S
C276        C277   1.405       .  A
C276        H281   1.083       .  S
C277        C278   1.416       .  A
C278        N279   1.430       .  S
N279        O283   1.262       .  A
N279        O284   1.262       .  A
N282        O286   1.262       .  A
N282        O285   1.262       .  A
C287        C288   1.401       .  A
C287        C292   1.395       .  A
C287        H294   1.084       .  S
C288        C289   1.408       .  A
C289        C290   1.401       .  A
C289        N296   1.431       .  S
C290        C291   1.408       .  A
C290        H295   1.084       .  S
C291        C292   1.411       .  A
C292        N293   1.428       .  S
N293        O297   1.261       .  A
N293        O298   1.262       .  A
N296        O300   1.262       .  A
N296        O299   1.262       .  A
C301        C302   1.406       .  A
C301        C306   1.399       .  A
C301        H308   1.083       .  S
C302        C303   1.418       .  A
C303        C304   1.402       .  A
C303        N310   1.429       .  S
C304        C305   1.409       .  A
C304        H309   1.083       .  S
C305        C306   1.415       .  A
C306        N307   1.427       .  S
N307        O311   1.262       .  A
N307        O312   1.261       .  A
N310        O314   1.262       .  A
N310        O313   1.262       .  A
C315        C316   1.402       .  A
C315        C320   1.402       .  A
C315        H322   1.078       .  S
C316        C317   1.415       .  A
C317        C318   1.405       .  A
C317        N324   1.429       .  S
C318        C319   1.407       .  A
C318        H323   1.084       .  S
C319        C320   1.414       .  A
C320        N321   1.428       .  S
N321        O325   1.262       .  A
N321        O326   1.262       .  A
N324        O328   1.262       .  A
N324        O327   1.262       .  A
C329        C330   1.410       .  A
C329        C334   1.406       .  A
C329        H336   1.084       .  S
C330        C331   1.414       .  A
C331        C332   1.398       .  A
C331        N338   1.426       .  S
C332        C333   1.399       .  A
C332        H337   1.083       .  S
C333        C334   1.411       .  A
C334        N335   1.431       .  S
N335        O339   1.262       .  A
N335        O340   1.262       .  A
N338        O342   1.262       .  A
N338        O341   1.262       .  A
C343        C344   1.402       .  A
C343        C348   1.399       .  A
C343        H350   1.084       .  S
C344        C345   1.415       .  A
C345        C346   1.399       .  A
C345        N352   1.429       .  S
C346        C347   1.403       .  A
C346        H351   1.084       .  S
C347        C348   1.416       .  A
C348        N349   1.428       .  S
N349        O353   1.261       .  A
N349        O354   1.262       .  A
N352        O356   1.262       .  A
N352        O355   1.262       .  A
C357        C358   1.404       .  A
C357        C362   1.395       .  A
C357        H364   1.083       .  S
C358        C359   1.418       .  A
C359        C360   1.395       .  A
C359        N366   1.430       .  S
C360        C361   1.402       .  A
C360        H365   1.083       .  S
C361        C362   1.416       .  A
C362        N363   1.428       .  S
N363        O367   1.261       .  A
N363        O368   1.262       .  A
N366        O370   1.262       .  A
N366        O369   1.261       .  A
C371        C372   1.405       .  A
C371        C376   1.403       .  A
C371        H378   1.083       .  S
C372        C373   1.412       .  A
C373        C374   1.401       .  A
C373        N380   1.427       .  S
C374        C375   1.405       .  A
C374        H379   1.084       .  S
C375        C376   1.413       .  A
C376        N377   1.427       .  S
N377        O381   1.262       .  A
N377        O382   1.262       .  A
N380        O384   1.262       .  A
N380        O383   1.262       .  A
C385        C390   1.403       .  A
C385        C938   1.405       .  A
C385        H392   1.084       .  S
C386        C757   1.499       .  S
C386        C387   1.417   1_554  A
C386        C937   1.408       .  A
C387        C388   1.401       .  A
C387        N394   1.428       .  S
C388        C389   1.407   1_556  A
C388        H393   1.083       .  S
C389        C942   1.418       .  A
C390        C941   1.419       .  A
C390        N391   1.429       .  S
N391        O395   1.262       .  A
N391        O396   1.261       .  A
N394        O950   1.261       .  A
N394        O397   1.262   1_556  A
O398        N946   1.262       .  A
C399        C400   1.404   1_554  A
C399        C404   1.398       .  A
C399        H406   1.080       .  S
C400        C953   1.415       .  A
C401        C402   1.400       .  A
C401        C952   1.415       .  A
C401        N408   1.429       .  S
C402        C955   1.405       .  A
C402        H407   1.084       .  S
C403        C758   1.488       .  S
C403        C404   1.414   1_556  A
C403        C954   1.406       .  A
C404        N405   1.429       .  S
N405        O409   1.262       .  A
N405        O410   1.262       .  A
N408        O412   1.262       .  A
N408        O411   1.262       .  A
C413        C414   1.404   1_554  A
C413        C418   1.396       .  A
C413        H420   1.084       .  S
C414        C727   1.481       .  S
C414        C967   1.413       .  A
C415        C416   1.395       .  A
C415        C966   1.414       .  A
C415        N422   1.424       .  S
C416        C969   1.399       .  A
C416        H421   1.084       .  S
C417        C418   1.415       .  A
C417        C968   1.404   1_554  A
C418        N419   1.429       .  S
N419        O423   1.262       .  A
N419        O976   1.261       .  A
N422        O426   1.262       .  A
N422        O977   1.261       .  A
O424        N971   1.262       .  A
O425        N974   1.261       .  A
C427        C428   1.401       .  A
C427        C432   1.399       .  A
C427        H434   1.084       .  S
C428        C981   1.412   1_554  A
C429        C980   1.409       .  A
C429        C982   1.401       .  A
C429        N436   1.432       .  S
C430        C431   1.405   1_556  A
C430        C981   1.400       .  A
C430        H435   1.080       .  S
C431        C726   1.488       .  S
C431        C432   1.415       .  A
C432        N433   1.428       .  S
N433        O989   1.262       .  A
N433        O438   1.262       .  A
N436        O992   1.261       .  A
N436        O439   1.263       .  A
O437        N985   1.262       .  A
O440        N988   1.261       .  A
C441        C442   1.403   1_545  A
C441        C446   1.398       .  A
C441        H448   1.084       .  S
C442       C1547   1.410       .  A
C443        C444   1.402       .  A
C443       C1546   1.411       .  A
C443        N450   1.431       .  S
C444       C1549   1.408       .  A
C444        H449   1.084       .  S
C445       C1256   1.485       .  S
C445        C446   1.413   1_565  A
C445       C1548   1.409       .  A
C446        N447   1.429       .  S
N447        O451   1.262       .  A
N447        O452   1.262       .  A
N450        O454   1.262       .  A
N450        O453   1.262       .  A
C455        C460   1.401       .  A
C455       C1560   1.406       .  A
C455        H462   1.082       .  S
C456        C457   1.416       .  A
C456       C1559   1.404   1_565  A
C457        C458   1.405       .  A
C457        N464   1.429       .  S
C458        C459   1.405       .  A
C458        H463   1.084       .  S
C459       C1255   1.491   1_565  S
C459       C1564   1.415   1_565  A
C460       C1563   1.417       .  A
C460        N461   1.430       .  S
N461        O465   1.262       .  A
N461       O1570   1.262       .  A
N464        O468   1.261       .  A
N464       O1571   1.262       .  A
O466       N1565   1.262       .  A
O467       N1568   1.262       .  A
C469        C474   1.401       .  A
C469       C1574   1.407       .  A
C469        H476   1.084       .  S
C470       C1225   1.487       .  S
C470        C471   1.411   1_565  A
C470       C1573   1.408       .  A
C471        C472   1.397       .  A
C471        N478   1.427       .  S
C472        C473   1.403   1_545  A
C472        H477   1.084       .  S
C473       C1578   1.414       .  A
C474       C1577   1.414       .  A
C474        N475   1.430       .  S
N475        O479   1.262       .  A
N475        O480   1.262       .  A
N478        O482   1.262       .  A
N478        O481   1.262       .  A
C483        C484   1.403   1_545  A
C483        C488   1.397       .  A
C483        H490   1.084       .  S
C484       C1224   1.485       .  S
C484       C1589   1.414       .  A
C485        C486   1.397       .  A
C485       C1588   1.415       .  A
C485        N492   1.429       .  S
C486       C1591   1.404       .  A
C486        H491   1.084       .  S
C487        C488   1.417   1_565  A
C487       C1590   1.406       .  A
C488        N489   1.427       .  S
N489       O1597   1.262   1_545  A
N489        O494   1.261       .  A
N492       O1600   1.262       .  A
N492        O495   1.262       .  A
O493       N1593   1.262       .  A
O496       N1596   1.262       .  A
C497        C498   1.405       .  A
C497        C502   1.400       .  A
C497        H504   1.084       .  S
C498       C2707   1.413   1_455  A
C499        C500   1.400       .  A
C499       C2706   1.413       .  A
C499        N506   1.430       .  S
C500       C2709   1.406       .  A
C500        H505   1.084       .  S
C501        C502   1.413       .  A
C501       C2708   1.406   1_455  A
C502        N503   1.429       .  S
N503        O507   1.262       .  A
N503        O508   1.262       .  A
N506        O510   1.262       .  A
N506        O509   1.262       .  A
C511        C512   1.403   1_455  A
C511        C516   1.397       .  A
C511        H518   1.084       .  S
C512       C2721   1.408       .  A
C513        C514   1.396       .  A
C513       C2720   1.409       .  A
C513        N520   1.427       .  S
C514       C2723   1.405       .  A
C514        H519   1.081       .  S
C515        C516   1.414       .  A
C515       C2722   1.403   1_455  A
C516        N517   1.429       .  S
N517        O521   1.262       .  A
N517        O522   1.262       .  A
N520        O524   1.261       .  A
N520        O523   1.263       .  A
C525        C530   1.393       .  A
C525       C2734   1.400       .  A
C525        H532   1.084       .  S
C526        C527   1.410   1_655  A
C526       C2733   1.400       .  A
C527        C528   1.396       .  A
C527        N534   1.431       .  S
C528        C529   1.405   1_455  A
C528        H533   1.084       .  S
C529       C2738   1.414       .  A
C530       C2737   1.415       .  A
C530        N531   1.430       .  S
N531        O535   1.262       .  A
N531        O536   1.262       .  A
N534        O538   1.262       .  A
N534        O537   1.262       .  A
C539        C544   1.396       .  A
C539       C2748   1.403       .  A
C539        H546   1.084       .  S
C540        C541   1.416   1_655  A
C540       C2747   1.403       .  A
C541        C542   1.397       .  A
C541        N548   1.431       .  S
C542        C543   1.404   1_455  A
C542        H547   1.083       .  S
C543       C2752   1.413       .  A
C544       C2751   1.413       .  A
C544        N545   1.429       .  S
N545        O549   1.262       .  A
N545        O550   1.262       .  A
N548        O552   1.262       .  A
N548        O551   1.262       .  A
O553       Zr589   2.425       .  S
O553        C564   1.289       .  A
O554       Zr588   2.429   1_545  S
O554        C565   1.290       .  A
O555       Zr561   2.429   1_455  S
O555        C566   1.291       .  A
O556      Zr2769   2.434       .  S
O556        C567   1.291       .  A
O557       Zr591   2.449   1_545  S
O557        C567   1.295       .  A
O558       Zr590   2.436       .  S
O558        C566   1.292       .  A
O559        C565   1.296       .  A
O560       Zr561   2.446       .  S
O560        C564   1.294       .  A
Zr561      O2764   2.433       .  S
Zr561      O2218   2.336       .  S
Zr561       O563   2.341   1_655  S
Zr561      O2779   2.338       .  S
O562      Zr2217   2.337       .  S
O562      Zr2796   2.336   1_545  S
O563       Zr589   2.344   1_455  S
O563       Zr590   2.343       .  S
C564       C1092   1.474       .  S
C565       C1050   1.494       .  S
C566        C980   1.476       .  S
C567        C952   1.489       .  S
H568        O569   0.984       .  S
O569       Zr588   2.338   1_545  S
H570        O571   0.954       .  S
O571      Zr2769   2.338       .  S
O571      Zr2797   2.338   1_545  S
O571       Zr591   2.337   1_545  S
O572      Zr1692   2.407       .  S
O572        C595   1.287       .  A
O573      Zr1693   2.425       .  S
O573        C596   1.290       .  A
O574        C597   1.292       .  A
O575        C598   1.290       .  A
O576       Zr591   2.429       .  S
O576        C599   1.290       .  A
O577       Zr590   2.427       .  S
O577        C600   1.291       .  A
O578       Zr592   2.452   1_455  S
O578        C601   1.296       .  A
O579      Zr2800   2.439       .  S
O579        C602   1.292       .  A
O580      Zr1694   2.419       .  S
O580        C601   1.288       .  A
O581      Zr1695   2.462       .  S
O581        C602   1.298       .  A
O582       Zr588   2.451       .  S
O582        C597   1.296       .  A
O583       Zr589   2.445   1_455  S
O583        C600   1.293       .  A
O584      Zr2797   2.442       .  S
O584        C599   1.294       .  A
O585      Zr2796   2.446       .  S
O585        C598   1.294       .  A
O586        C595   1.293       .  A
O587       Zr592   2.418       .  S
O587        C596   1.289       .  A
Zr588      O1676   2.420       .  S
Zr588      O2793   2.454   1_455  S
Zr588      O2770   2.338   1_465  S
Zr588      O1698   2.340       .  S
Zr588      O3918   2.342   1_455  S
Zr589      O1677   2.424   1_545  S
Zr589      O2792   2.442   1_545  S
Zr589      O2779   2.338       .  S
Zr589      O3905   2.335   1_545  S
Zr589      O1708   2.340   1_645  S
Zr590      O1684   2.432   1_545  S
Zr590      O1146   2.336   1_545  S
Zr590      O1708   2.340   1_545  S
Zr591      O1685   2.446       .  S
Zr591      O1697   2.337       .  S
Zr591      O1158   2.340       .  S
Zr592      O2787   2.446       .  S
Zr592      O2801   2.343       .  S
Zr592      O2262   2.338       .  S
Zr592       O604   2.337   1_655  S
O593      Zr3901   2.336       .  S
O593      Zr1695   2.334       .  S
O593      Zr2800   2.341       .  S
O594      Zr1692   2.337       .  S
O594      Zr1142   2.341   1_556  S
C595       C1064   1.476       .  S
C596       C1078   1.461       .  S
C597       C1008   1.493       .  S
C598        C994   1.481       .  S
C599       C1039   1.488       .  S
C600       C1025   1.483       .  S
C601        C969   1.483       .  S
C602        C941   1.502       .  S
H603        O604   0.957       .  S
O604      Zr1693   2.338   1_455  S
O604      Zr1694   2.335       .  S
H605        O606   0.968       .  S
O606      Zr3900   2.346       .  S
O606      Zr1143   2.337       .  S
O606      Zr2248   2.337   1_556  S
O607       Zr643   2.440   1_455  S
O607        C618   1.292   1_455  A
O608       Zr642   2.437       .  S
O608        C619   1.292       .  A
O609       Zr615   2.446   1_455  S
O609        C620   1.293       .  A
O610      Zr2823   2.452       .  S
O610        C621   1.296       .  A
O611       Zr645   2.437       .  S
O611        C621   1.291       .  A
O612       Zr644   2.452       .  S
O612        C620   1.296       .  A
O613       Zr615   2.442       .  S
O613        C619   1.295   1_655  A
O614       Zr615   2.440       .  S
O614        C618   1.293       .  A
Zr615      O2818   2.453       .  S
Zr615      O2824   2.340       .  S
Zr615       O617   2.339   1_655  S
Zr615      O2833   2.337       .  S
Zr615       O623   2.348   1_655  S
O616      Zr2823   2.339       .  S
O616      Zr2850   2.344       .  S
O616       Zr645   2.339       .  S
O617       Zr643   2.331   1_455  S
O617       Zr644   2.335       .  S
C618       C1095   1.477       .  S
C619       C1053   1.494       .  S
C620        C854   1.493       .  S
C621        C826   1.498       .  S
H622        O623   0.966       .  S
O623       Zr642   2.343       .  S
O623       Zr644   2.340       .  S
H624        O625   0.970       .  S
O625      Zr2823   2.339       .  S
O625      Zr2851   2.346       .  S
O625       Zr645   2.347       .  S
O626       Zr642   2.436       .  S
O626        C649   1.293       .  A
O627       Zr643   2.439       .  S
O627        C650   1.293       .  A
O628       Zr644   2.427       .  S
O628        C651   1.289       .  A
O629       Zr645   2.458       .  S
O629        C652   1.298       .  A
O630       Zr645   2.446       .  S
O630        C653   1.294       .  A
O631       Zr644   2.413       .  S
O631        C654   1.287       .  A
O632       Zr646   2.434   1_455  S
O632        C655   1.291       .  A
O633      Zr2854   2.447       .  S
O633        C656   1.293       .  A
O634       Zr644   2.449       .  S
O634        C655   1.296       .  A
O635       Zr645   2.444       .  S
O635        C656   1.293       .  A
O636       Zr642   2.441       .  S
O636        C651   1.294       .  A
O637       Zr643   2.455   1_455  S
O637        C654   1.296       .  A
O638      Zr2851   2.441       .  S
O638        C653   1.293       .  A
O639      Zr2850   2.436       .  S
O639        C652   1.291       .  A
O640       Zr646   2.427   1_455  S
O640        C649   1.289       .  A
O641       Zr646   2.425       .  S
O641        C650   1.289       .  A
Zr642      O2847   2.439   1_455  S
Zr642      O2824   2.344   1_455  S
Zr642       O648   2.335       .  S
Zr642      O2868   2.342   1_455  S
Zr643      O2846   2.439       .  S
Zr643      O2833   2.347       .  S
Zr643      O2855   2.347       .  S
Zr643       O658   2.336   1_655  S
Zr644       O648   2.338       .  S
Zr644       O658   2.341       .  S
Zr645       O647   2.341       .  S
Zr645       O660   2.340       .  S
Zr646      O2841   2.442       .  S
Zr646      O2855   2.336       .  S
Zr646       O648   2.342   1_655  S
Zr646      O2868   2.337       .  S
Zr646       O658   2.345   1_655  S
O647      Zr2851   2.344       .  S
O647      Zr2854   2.336       .  S
C649       C1067   1.481       .  S
C650       C1081   1.470       .  S
C651        C913   1.486       .  S
C652        C924   1.496       .  S
C653        C885   1.482       .  S
C654        C896   1.483       .  S
C655        C868   1.492       .  S
C656        C843   1.480       .  S
H657        O658   0.967       .  S
H659        O660   0.966       .  S
O660      Zr2850   2.345       .  S
O660      Zr2854   2.340       .  S
O661       Zr697   2.426       .  S
O661        C672   1.290       .  A
O662       Zr696   2.440       .  S
O662        C673   1.293       .  A
O663       Zr669   2.422       .  S
O663        C674   1.288       .  A
O664      Zr1773   2.435       .  S
O664        C675   1.293       .  A
O665       Zr699   2.404       .  S
O665        C675   1.285       .  A
O666       Zr698   2.455       .  S
O666        C674   1.297       .  A
O667       Zr669   2.453       .  S
O667        C673   1.295       .  A
O668       Zr669   2.451       .  S
O668        C672   1.295       .  A
Zr669      O1768   2.419       .  S
Zr669      O1774   2.337       .  S
Zr669       O671   2.341       .  S
Zr669      O1783   2.338       .  S
Zr669       O677   2.341       .  S
O670      Zr1773   2.336       .  S
O670      Zr1800   2.341       .  S
O670       Zr699   2.337       .  S
O671       Zr697   2.340       .  S
O671       Zr698   2.334       .  S
C672       C2140   1.488       .  S
C673       C2126   1.489       .  S
C674        C787   1.493       .  S
C675        C770   1.479       .  S
H676        O677   0.964       .  S
O677       Zr696   2.340       .  S
O677       Zr698   2.341       .  S
H678        O679   0.965       .  S
O679      Zr1773   2.340       .  S
O679      Zr1801   2.339   1_545  S
O679       Zr699   2.341       .  S
O680       Zr696   2.444       .  S
O680        C703   1.293       .  A
O681       Zr697   2.445       .  S
O681        C704   1.293       .  A
O682       Zr698   2.436       .  S
O682        C705   1.292       .  A
O683       Zr699   2.455       .  S
O683        C706   1.295       .  A
O684       Zr699   2.451       .  S
O684        C707   1.296       .  A
O685       Zr698   2.443       .  S
O685        C708   1.293       .  A
O686       Zr700   2.419       .  S
O686        C709   1.288       .  A
O687      Zr1804   2.429       .  S
O687        C710   1.292       .  A
O688       Zr698   2.449       .  S
O688        C709   1.296       .  A
O689       Zr699   2.409       .  S
O689        C710   1.286       .  A
O690       Zr696   2.453       .  S
O690        C705   1.296       .  A
O691       Zr697   2.425       .  S
O691        C708   1.289       .  A
O692      Zr1801   2.431   1_545  S
O692        C707   1.290       .  A
O693      Zr1800   2.443       .  S
O693        C706   1.294       .  A
O694       Zr700   2.451       .  S
O694        C703   1.295       .  A
O695       Zr700   2.453       .  S
O695        C704   1.295       .  A
Zr696      O1797   2.438       .  S
Zr696      O1774   2.344       .  S
Zr696       O702   2.337       .  S
Zr696      O1818   2.340       .  S
Zr697      O1796   2.421       .  S
Zr697      O1783   2.344       .  S
Zr697      O1805   2.334       .  S
Zr697       O712   2.332       .  S
Zr698       O702   2.343       .  S
Zr698       O712   2.343       .  S
Zr699       O701   2.334       .  S
Zr699       O714   2.339       .  S
Zr700      O1791   2.421       .  S
Zr700      O1805   2.333       .  S
Zr700       O702   2.343       .  S
Zr700      O1818   2.337       .  S
Zr700       O712   2.341       .  S
O701      Zr1801   2.336   1_545  S
O701      Zr1804   2.335       .  S
C703       C2115   1.488       .  S
C704       C2101   1.488       .  S
C705        C871   1.494       .  S
C706        C857   1.492       .  S
C707        C829   1.496       .  S
C708        C840   1.472       .  S
C709        C798   1.488       .  S
C710        C812   1.470       .  S
H711        O712   0.966       .  S
H713        O714   0.966       .  S
O714      Zr1800   2.343       .  S
O714      Zr1804   2.338       .  S
O715       Zr751   2.447   1_554  S
O715        C726   1.294       .  A
O716       Zr750   2.436       .  S
O716        C727   1.293       .  A
O717        C728   1.287       .  A
O718       Zr723   2.421       .  S
O718        C729   1.288       .  A
O719       Zr753   2.446       .  S
O719        C729   1.295       .  A
O720       Zr752   2.452       .  S
O720        C728   1.296       .  A
O721       Zr723   2.425       .  S
O721        C727   1.289       .  A
O722       Zr723   2.434   1_554  S
O722        C726   1.291       .  A
Zr723       O724   2.342       .  S
Zr723       O733   2.338       .  S
O724       Zr750   2.340       .  S
O724       Zr753   2.338       .  S
O725       Zr752   2.343       .  S
C728        C899   1.481       .  S
C729        C910   1.486       .  S
H730        O731   0.966       .  S
O731       Zr752   2.341       .  S
H732        O733   0.964       .  S
O733       Zr751   2.337       .  S
O733       Zr753   2.342       .  S
O734       Zr750   2.445   1_554  S
O734        C757   1.293       .  A
O735       Zr751   2.438       .  S
O735        C758   1.292       .  A
O736       Zr752   2.429       .  S
O736        C759   1.290       .  A
O737       Zr753   2.433       .  S
O737        C760   1.291       .  A
O738       Zr753   2.428       .  S
O738        C761   1.291       .  A
O739       Zr752   2.426       .  S
O739        C762   1.292       .  A
O740        C763   1.294       .  A
O741       Zr754   2.454       .  S
O741        C764   1.297       .  A
O742       Zr752   2.458       .  S
O742        C763   1.296       .  A
O743       Zr753   2.445       .  S
O743        C764   1.293       .  A
O744        C759   1.295       .  A
O745        C762   1.286       .  A
O746       Zr751   2.427       .  S
O746        C761   1.290       .  A
O747       Zr750   2.441       .  S
O747        C760   1.294       .  A
O748       Zr754   2.452   1_554  S
O748        C757   1.296       .  A
O749       Zr754   2.440       .  S
O749        C758   1.294       .  A
Zr750       O768   2.339       .  S
Zr751       O755   2.340       .  S
Zr752       O756   2.337       .  S
Zr752       O766   2.336       .  S
Zr753       O755   2.338       .  S
Zr753       O768   2.346       .  S
Zr754       O755   2.342       .  S
Zr754       O768   2.338       .  S
C759        C784   1.493       .  S
C760        C801   1.490       .  S
C761        C815   1.476       .  S
C762        C773   1.478       .  S
C763        C882   1.488       .  S
C764        C927   1.498       .  S
H765        O766   0.966       .  S
H767        O768   0.965       .  S
C769        C770   1.403       .  A
C769        C774   1.391       .  A
C769        H776   1.084       .  S
C770        C771   1.416       .  A
C771        C772   1.392       .  A
C771        N778   1.430       .  S
C772        C773   1.404       .  A
C772        H777   1.083       .  S
C773        C774   1.415       .  A
C774        N775   1.428       .  S
N775        O779   1.262       .  A
N775        O780   1.262       .  A
N778        O782   1.262       .  A
N778        O781   1.262       .  A
C783        C784   1.406       .  A
C783        C788   1.399       .  A
C783        H790   1.084       .  S
C784        C785   1.417       .  A
C785        C786   1.398       .  A
C785        N792   1.429       .  S
C786        C787   1.405       .  A
C786        H791   1.083       .  S
C787        C788   1.419       .  A
C788        N789   1.430       .  S
N789        O793   1.262       .  A
N789        O794   1.262       .  A
N792        O796   1.262       .  A
N792        O795   1.262       .  A
C797        C798   1.402       .  A
C797        C802   1.395       .  A
C797        H804   1.083       .  S
C798        C799   1.417       .  A
C799        C800   1.399       .  A
C799        N806   1.429       .  S
C800        C801   1.406       .  A
C800        H805   1.083       .  S
C801        C802   1.415       .  A
C802        N803   1.426       .  S
N803        O807   1.261       .  A
N803        O808   1.260       .  A
N806        O810   1.262       .  A
N806        O809   1.262       .  A
C811        C812   1.401       .  A
C811        C816   1.392       .  A
C811        H818   1.084       .  S
C812        C813   1.412       .  A
C813        C814   1.395       .  A
C813        N820   1.430       .  S
C814        C815   1.402       .  A
C814        H819   1.078       .  S
C815        C816   1.410       .  A
C816        N817   1.425       .  S
N817        O821   1.261       .  A
N817        O822   1.262       .  A
N820        O824   1.262       .  A
N820        O823   1.262       .  A
C825        C826   1.407       .  A
C825        C830   1.401       .  A
C825        H832   1.083       .  S
C826        C827   1.418       .  A
C827        C828   1.400       .  A
C827        N834   1.428       .  S
C828        C829   1.406       .  A
C828        H833   1.083       .  S
C829        C830   1.418       .  A
C830        N831   1.428       .  S
N831        O835   1.261       .  A
N831        O836   1.262       .  A
N834        O838   1.262       .  A
N834        O837   1.262       .  A
C839        C840   1.400       .  A
C839        C844   1.399       .  A
C839        H846   1.084       .  S
C840        C841   1.407       .  A
C841        C842   1.403       .  A
C841        N848   1.430       .  S
C842        C843   1.407       .  A
C842        H847   1.084       .  S
C843        C844   1.412       .  A
C844        N845   1.429       .  S
N845        O849   1.262       .  A
N845        O850   1.262       .  A
N848        O852   1.261       .  A
N848        O851   1.263       .  A
C853        C854   1.406       .  A
C853        C858   1.401       .  A
C853        H860   1.084       .  S
C854        C855   1.417       .  A
C855        C856   1.405       .  A
C855        N862   1.430       .  S
C856        C857   1.408       .  A
C856        H861   1.084       .  S
C857        C858   1.413       .  A
C858        N859   1.428       .  S
N859        O863   1.262       .  A
N859        O864   1.262       .  A
N862        O866   1.262       .  A
N862        O865   1.262       .  A
C867        C868   1.404       .  A
C867        C872   1.399       .  A
C867        H874   1.082       .  S
C868        C869   1.416       .  A
C869        C870   1.402       .  A
C869        N876   1.430       .  S
C870        C871   1.407       .  A
C870        H875   1.084       .  S
C871        C872   1.417       .  A
C872        N873   1.429       .  S
N873        O877   1.261       .  A
N873        O878   1.262       .  A
N876        O880   1.262       .  A
N876        O879   1.261       .  A
C881        C882   1.408       .  A
C881        C886   1.404       .  A
C881        H888   1.084       .  S
C882        C883   1.413       .  A
C883        C884   1.402       .  A
C883        N890   1.429       .  S
C884        C885   1.402       .  A
C884        H889   1.082       .  S
C885        C886   1.411       .  A
C886        N887   1.430       .  S
N887        O891   1.262       .  A
N887        O892   1.262       .  A
N890        O894   1.262       .  A
N890        O893   1.262       .  A
C895        C896   1.403       .  A
C895        C900   1.398       .  A
C895        H902   1.084       .  S
C896        C897   1.417       .  A
C897        C898   1.396       .  A
C897        N904   1.429       .  S
C898        C899   1.401       .  A
C898        H903   1.084       .  S
C899        C900   1.416       .  A
C900        N901   1.429       .  S
N901        O905   1.261       .  A
N901        O906   1.262       .  A
N904        O908   1.262       .  A
N904        O907   1.262       .  A
C909        C910   1.403       .  A
C909        C914   1.396       .  A
C909        H916   1.081       .  S
C910        C911   1.416       .  A
C911        C912   1.397       .  A
C911        N918   1.430       .  S
C912        C913   1.405       .  A
C912        H917   1.083       .  S
C913        C914   1.414       .  A
C914        N915   1.428       .  S
N915        O919   1.261       .  A
N915        O920   1.262       .  A
N918        O922   1.262       .  A
N918        O921   1.261       .  A
C923        C924   1.403       .  A
C923        C928   1.400       .  A
C923        H930   1.083       .  S
C924        C925   1.417       .  A
C925        C926   1.402       .  A
C925        N932   1.426       .  S
C926        C927   1.405       .  A
C926        H931   1.084       .  S
C927        C928   1.417       .  A
C928        N929   1.425       .  S
N929        O933   1.260       .  A
N929        O934   1.261       .  A
N932        O936   1.260       .  A
N932        O935   1.261       .  A
C937        C942   1.404       .  A
C937        H944   1.084       .  S
C938        C939   1.421       .  A
C939        C940   1.404       .  A
C939        N946   1.429       .  S
C940        C941   1.407       .  A
C940        H945   1.083       .  S
C942        N943   1.429       .  S
N943        O947   1.262       .  A
N943        O948   1.261       .  A
N946        O949   1.262       .  A
C951        C952   1.404       .  A
C951        C956   1.401       .  A
C951        H958   1.084       .  S
C953        C954   1.401       .  A
C953        N960   1.429       .  S
C954        H959   1.084       .  S
C955        C956   1.416       .  A
C956        N957   1.426       .  S
N957        O961   1.262       .  A
N957        O962   1.261       .  A
N960        O964   1.262       .  A
N960        O963   1.262       .  A
C965        C966   1.405       .  A
C965        C970   1.402       .  A
C965        H972   1.084       .  S
C967        C968   1.395       .  A
C967        N974   1.427       .  S
C968        H973   1.084       .  S
C969        C970   1.417       .  A
C970        N971   1.430       .  S
N971        O975   1.262       .  A
N974        O978   1.262       .  A
C979        C980   1.401       .  A
C979        C984   1.400       .  A
C979        H986   1.084       .  S
C981        N988   1.430       .  S
C982        C983   1.404       .  A
C982        H987   1.075       .  S
C983        C984   1.416       .  A
C984        N985   1.428       .  S
N985        O990   1.262       .  A
N988        O991   1.263       .  A
C993        C994   1.404   1_545  A
C993        C998   1.398       .  A
C993       H1000   1.084       .  S
C994       C2099   1.411       .  A
C995       C2098   1.411       .  A
C995        C996   1.405       .  A
C995       N1002   1.431       .  S
C996       C2101   1.409       .  A
C996       H1001   1.084       .  S
C997       C1808   1.485       .  S
C997       C2100   1.409       .  A
C997        C998   1.413   1_565  A
C998        N999   1.429       .  S
N999       O1003   1.262       .  A
N999       O1004   1.262       .  A
N1002      O1006   1.262       .  A
N1002      O1005   1.262       .  A
C1007      C2112   1.404       .  A
C1007      C1012   1.401       .  A
C1007      H1014   1.084       .  S
C1008      C2111   1.406   1_565  A
C1008      C1009   1.415       .  A
C1009      C1010   1.402       .  A
C1009      N1016   1.429       .  S
C1010      C1011   1.407   1_565  A
C1010      H1015   1.083       .  S
C1011      C1807   1.491       .  S
C1011      C2116   1.413       .  A
C1012      C2115   1.413       .  A
C1012      N1013   1.429       .  S
N1013      O1017   1.262       .  A
N1013      O2122   1.262       .  A
N1016      O1020   1.261       .  A
N1016      O2123   1.262       .  A
O1018      N2117   1.262       .  A
O1019      N2120   1.262       .  A
C1021      C2126   1.408       .  A
C1021      C1026   1.403       .  A
C1021      H1028   1.084       .  S
C1022      C1777   1.486       .  S
C1022      C2125   1.407   1_545  A
C1022      C1023   1.414       .  A
C1023      C1024   1.399       .  A
C1023      N1030   1.429       .  S
C1024      C1025   1.406       .  A
C1024      H1029   1.084       .  S
C1025      C2130   1.412   1_545  A
C1026      C2129   1.414       .  A
C1026      N1027   1.430       .  S
N1027      O1031   1.262       .  A
N1027      O1032   1.262       .  A
N1030      O1034   1.262       .  A
N1030      O1033   1.262       .  A
C1035      C1036   1.406   1_545  A
C1035      C1040   1.398       .  A
C1035      H1042   1.084       .  S
C1036      C1776   1.488       .  S
C1036      C2141   1.416       .  A
C1037      C2140   1.416       .  A
C1037      C1038   1.397       .  A
C1037      N1044   1.430       .  S
C1038      C2143   1.405       .  A
C1038      H1043   1.084       .  S
C1039      C2142   1.406       .  A
C1039      C1040   1.415   1_565  A
C1040      N1041   1.429       .  S
N1041      O2149   1.262   1_545  A
N1041      O1046   1.262       .  A
N1044      O2152   1.261       .  A
N1044      O1047   1.262       .  A
O1045      N2145   1.262       .  A
O1048      N2148   1.261       .  A
C1049      C1050   1.405       .  A
C1049      C1054   1.399   1_455  A
C1049      H1056   1.083   1_455  S
C1050      C3259   1.418       .  A
C1051      C3258   1.417       .  A
C1051      C1052   1.402       .  A
C1051      N1058   1.429       .  S
C1052      C3261   1.407       .  A
C1052      H1057   1.084       .  S
C1053      C3260   1.406       .  A
C1053      C1054   1.416   1_455  A
C1054      N1055   1.427       .  S
N1055      O1059   1.261       .  A
N1055      O1060   1.262   1_655  A
N1058      O1062   1.262       .  A
N1058      O1061   1.262       .  A
C1063      C1064   1.403       .  A
C1063      C1068   1.396       .  A
C1063      H1070   1.084       .  S
C1064      C3273   1.408   1_455  A
C1065      C3272   1.407       .  A
C1065      C1066   1.396       .  A
C1065      N1072   1.428       .  S
C1066      C3275   1.402       .  A
C1066      H1071   1.078       .  S
C1067      C3274   1.404   1_455  A
C1067      C1068   1.413       .  A
C1068      N1069   1.428       .  S
N1069      O1073   1.262       .  A
N1069      O1074   1.262       .  A
N1072      O1076   1.261       .  A
N1072      O1075   1.263       .  A
C1077      C3286   1.397       .  A
C1077      C1082   1.395       .  A
C1077      H1084   1.084       .  S
C1078      C3285   1.398       .  A
C1078      C1079   1.408   1_655  A
C1079      C1080   1.398       .  A
C1079      N1086   1.432       .  S
C1080      C1081   1.405   1_455  A
C1080      H1085   1.084       .  S
C1081      C3290   1.413       .  A
C1082      C3289   1.413       .  A
C1082      N1083   1.430       .  S
N1083      O1087   1.262       .  A
N1083      O1088   1.262       .  A
N1086      O1090   1.262       .  A
N1086      O1089   1.263       .  A
C1091      C3300   1.402       .  A
C1091      C1096   1.399       .  A
C1091      H1098   1.084       .  S
C1092      C3299   1.401   1_655  A
C1092      C1093   1.413       .  A
C1093      C1094   1.400       .  A
C1093      N1100   1.431       .  S
C1094      C1095   1.404       .  A
C1094      H1099   1.084       .  S
C1095      C3304   1.411   1_655  A
C1096      C3303   1.412       .  A
C1096      N1097   1.429       .  S
N1097      O1101   1.262       .  A
N1097      O1102   1.262       .  A
N1100      O1104   1.262       .  A
N1100      O1103   1.262       .  A
O1105     Zr1141   2.432   1_455  S
O1105      C1116   1.291       .  A
O1106     Zr1140   2.429       .  S
O1106      C1117   1.290       .  A
O1107     Zr1113   2.436   1_455  S
O1107      C1118   1.292       .  A
O1108     Zr3321   2.431       .  S
O1108      C1119   1.290       .  A
O1109     Zr1143   2.440   1_554  S
O1109      C1119   1.294       .  A
O1110     Zr1142   2.431       .  S
O1110      C1118   1.291       .  A
O1111     Zr1665   2.448       .  S
O1111      C1117   1.295   1_655  A
O1112     Zr1113   2.432   1_455  S
O1112      C1116   1.292       .  A
Zr1113     O3316   2.435       .  S
Zr1113     O1663   2.451   1_554  S
Zr1113     O3874   2.332   1_554  S
Zr1113     O1115   2.338   1_655  S
Zr1113     O3331   2.345       .  S
Zr1113     O1673   2.338   1_654  S
O1114     Zr3873   2.338       .  S
O1114     Zr3348   2.337       .  S
O1114     Zr1695   2.343       .  S
O1115     Zr1141   2.338   1_455  S
O1115     Zr1142   2.332       .  S
C1116      C1644   1.479       .  S
C1117      C1602   1.484       .  S
C1118      C1532   1.480       .  S
C1119      C1504   1.490       .  S
H1120      O1121   0.959       .  S
O1121     Zr1665   2.340   1_455  S
O1121     Zr1140   2.335       .  S
O1121     Zr1694   2.340       .  S
H1122      O1123   0.958       .  S
O1123     Zr3321   2.343       .  S
O1123     Zr3349   2.336       .  S
O1123     Zr1143   2.343   1_554  S
O1124      C1147   1.291       .  A
O1125      C1148   1.289       .  A
O1126     Zr1694   2.451       .  S
O1126      C1149   1.294       .  A
O1127     Zr1695   2.427       .  S
O1127      C1150   1.291       .  A
O1128     Zr1143   2.427   1_554  S
O1128      C1151   1.290       .  A
O1129     Zr1142   2.438       .  S
O1129      C1152   1.293       .  A
O1130     Zr1144   2.450   1_454  S
O1130      C1153   1.295       .  A
O1131     Zr3352   2.442   1_554  S
O1131      C1154   1.293       .  A
O1132      C1153   1.288       .  A
O1133      C1154   1.296   1_556  A
O1134     Zr1140   2.448       .  S
O1134      C1149   1.295       .  A
O1135     Zr1141   2.432   1_455  S
O1135      C1152   1.290       .  A
O1136     Zr3349   2.444       .  S
O1136      C1151   1.294       .  A
O1137     Zr3348   2.441       .  S
O1137      C1150   1.293       .  A
O1138     Zr1696   2.414       .  S
O1138      C1147   1.288       .  A
O1139     Zr1144   2.424   1_454  S
O1139      C1148   1.290   1_455  A
Zr1140     O3345   2.438   1_455  S
Zr1140     O3322   2.339   1_455  S
Zr1140     O2262   2.345   1_455  S
Zr1141     O3344   2.443       .  S
Zr1141     O3331   2.337       .  S
Zr1141     O2249   2.335       .  S
Zr1142     O1678   2.437   1_554  S
Zr1142     O1673   2.343   1_554  S
Zr1143     O1679   2.437       .  S
Zr1143     O1666   2.338       .  S
Zr1144     O3339   2.447   1_556  S
Zr1144     O1690   2.417   1_655  S
Zr1144     O3353   2.337   1_556  S
Zr1144     O1698   2.337   1_655  S
Zr1144     O3918   2.342       .  S
Zr1144     O1156   2.328   1_656  S
O1145     Zr2245   2.330       .  S
O1145     Zr3352   2.336   1_554  S
O1146     Zr1696   2.336       .  S
C1147      C1616   1.469       .  S
C1148      C1630   1.465   1_655  S
C1149      C1560   1.497       .  S
C1150      C1546   1.479       .  S
C1151      C1591   1.483       .  S
C1152      C1577   1.483       .  S
C1153      C1521   1.483       .  S
C1154      C1493   1.496       .  S
H1155      O1156   0.973       .  S
H1157      O1158   0.960       .  S
O1158     Zr2244   2.346       .  S
O1158     Zr3904   2.341       .  S
O1159     Zr1195   2.424       .  S
O1159      C1170   1.289       .  A
O1160     Zr1194   2.437   1_655  S
O1160      C1171   1.292       .  A
O1161     Zr1167   2.437   1_455  S
O1161      C1172   1.291       .  A
O1162     Zr3375   2.445       .  S
O1162      C1173   1.295       .  A
O1163     Zr1197   2.444       .  S
O1163      C1173   1.293       .  A
O1164     Zr1196   2.455       .  S
O1164      C1172   1.297       .  A
O1165     Zr1167   2.446       .  S
O1165      C1171   1.294       .  A
O1166     Zr1167   2.441       .  S
O1166      C1170   1.294       .  A
Zr1167     O3370   2.438       .  S
Zr1167     O3376   2.335       .  S
Zr1167     O1169   2.341   1_655  S
Zr1167     O3385   2.340       .  S
Zr1167     O1175   2.342   1_655  S
O1168     Zr3375   2.335       .  S
O1168     Zr3402   2.339       .  S
O1168     Zr1197   2.335       .  S
O1169     Zr1195   2.338   1_455  S
O1169     Zr1196   2.332       .  S
C1170      C1647   1.480   1_655  S
C1171      C1605   1.486       .  S
C1172      C1406   1.499       .  S
C1173      C1378   1.497       .  S
H1174      O1175   0.966       .  S
O1175     Zr1194   2.339       .  S
O1175     Zr1196   2.342       .  S
H1176      O1177   0.970       .  S
O1177     Zr3375   2.341       .  S
O1177     Zr3403   2.348       .  S
O1177     Zr1197   2.344       .  S
O1178     Zr1194   2.423       .  S
O1178      C1201   1.290       .  A
O1179     Zr1195   2.432       .  S
O1179      C1202   1.291       .  A
O1180     Zr1196   2.415       .  S
O1180      C1203   1.287       .  A
O1181     Zr1197   2.449       .  S
O1181      C1204   1.296       .  A
O1182     Zr1197   2.442       .  S
O1182      C1205   1.293       .  A
O1183     Zr1196   2.415       .  S
O1183      C1206   1.287       .  A
O1184     Zr1198   2.431       .  S
O1184      C1207   1.290       .  A
O1185     Zr3406   2.443       .  S
O1185      C1208   1.293       .  A
O1186     Zr1196   2.450       .  S
O1186      C1207   1.296       .  A
O1187     Zr1197   2.440       .  S
O1187      C1208   1.292       .  A
O1188     Zr1194   2.446       .  S
O1188      C1203   1.295       .  A
O1189     Zr1195   2.458   1_455  S
O1189      C1206   1.296       .  A
O1190     Zr3403   2.441       .  S
O1190      C1205   1.293       .  A
O1191     Zr3402   2.434       .  S
O1191      C1204   1.290       .  A
O1192     Zr1198   2.442       .  S
O1192      C1201   1.293       .  A
O1193     Zr1198   2.435   1_655  S
O1193      C1202   1.291       .  A
Zr1194     O3399   2.439   1_455  S
Zr1194     O3376   2.340   1_455  S
Zr1194     O1200   2.336       .  S
Zr1194     O3420   2.347   1_455  S
Zr1195     O3398   2.443       .  S
Zr1195     O3385   2.348       .  S
Zr1195     O3407   2.339       .  S
Zr1195     O1210   2.332   1_655  S
Zr1196     O1200   2.338       .  S
Zr1196     O1210   2.340       .  S
Zr1197     O1199   2.340       .  S
Zr1197     O1212   2.344       .  S
Zr1198     O3393   2.443   1_455  S
Zr1198     O3407   2.336   1_455  S
Zr1198     O1200   2.341       .  S
Zr1198     O3420   2.341   1_455  S
Zr1198     O1210   2.345       .  S
O1199     Zr3403   2.339       .  S
O1199     Zr3406   2.335       .  S
C1201      C1619   1.478       .  S
C1202      C1633   1.474       .  S
C1203      C1465   1.483       .  S
C1204      C1476   1.492       .  S
C1205      C1437   1.477       .  S
C1206      C1448   1.482       .  S
C1207      C1420   1.490       .  S
C1208      C1395   1.477       .  S
H1209      O1210   0.967       .  S
H1211      O1212   0.966       .  S
O1212     Zr3402   2.346       .  S
O1212     Zr3406   2.342       .  S
O1213     Zr1249   2.434       .  S
O1213      C1224   1.291       .  A
O1214     Zr1248   2.439       .  S
O1214      C1225   1.293       .  A
O1215     Zr1221   2.412       .  S
O1215      C1226   1.287       .  A
O1216      C1227   1.293       .  A
O1217     Zr1251   2.421       .  S
O1217      C1227   1.289       .  A
O1218     Zr1250   2.441       .  S
O1218      C1226   1.294       .  A
O1219     Zr1221   2.453       .  S
O1219      C1225   1.295       .  A
O1220     Zr1221   2.440       .  S
O1220      C1224   1.294       .  A
Zr1221     O1223   2.337       .  S
Zr1221     O1229   2.340       .  S
O1222     Zr1251   2.338       .  S
O1223     Zr1249   2.332       .  S
O1223     Zr1250   2.329       .  S
C1226      C1339   1.482       .  S
C1227      C1322   1.480       .  S
H1228      O1229   0.964       .  S
O1229     Zr1248   2.337       .  S
O1229     Zr1250   2.341       .  S
H1230      O1231   0.966       .  S
O1231     Zr1251   2.335       .  S
O1232     Zr1248   2.439   1_545  S
O1232      C1255   1.292       .  A
O1233     Zr1249   2.440       .  S
O1233      C1256   1.292       .  A
O1234     Zr1250   2.431       .  S
O1234      C1257   1.291       .  A
O1235     Zr1251   2.445       .  S
O1235      C1258   1.293       .  A
O1236     Zr1251   2.453       .  S
O1236      C1259   1.296       .  A
O1237     Zr1250   2.440       .  S
O1237      C1260   1.292       .  A
O1238     Zr1252   2.416       .  S
O1238      C1261   1.287       .  A
O1239      C1262   1.292       .  A
O1240     Zr1250   2.443       .  S
O1240      C1261   1.295       .  A
O1241     Zr1251   2.410       .  S
O1241      C1262   1.287       .  A
O1242     Zr1248   2.447       .  S
O1242      C1257   1.295       .  A
O1243     Zr1249   2.421       .  S
O1243      C1260   1.289       .  A
O1244      C1259   1.289       .  A
O1245      C1258   1.295       .  A
O1246     Zr1252   2.459       .  S
O1246      C1255   1.297   1_565  A
O1247     Zr1252   2.448   1_545  S
O1247      C1256   1.294   1_545  A
Zr1248     O1254   2.337       .  S
Zr1249     O1264   2.336       .  S
Zr1250     O1254   2.340       .  S
Zr1250     O1264   2.338       .  S
Zr1251     O1253   2.331       .  S
Zr1251     O1266   2.346       .  S
Zr1252     O1254   2.338       .  S
Zr1252     O1264   2.344       .  S
C1257      C1423   1.490       .  S
C1258      C1409   1.499       .  S
C1259      C1381   1.494       .  S
C1260      C1392   1.469       .  S
C1261      C1350   1.485       .  S
C1262      C1364   1.471       .  S
H1263      O1264   0.966       .  S
H1265      O1266   0.966       .  S
O1267     Zr1303   2.448       .  S
O1267      C1278   1.294       .  A
O1268     Zr1302   2.443       .  S
O1268      C1279   1.294       .  A
O1269     Zr1827   2.424       .  S
O1269      C1280   1.289       .  A
O1270     Zr1275   2.424       .  S
O1270      C1281   1.289       .  A
O1271     Zr1305   2.433       .  S
O1271      C1281   1.292       .  A
O1272     Zr1304   2.449       .  S
O1272      C1280   1.295       .  A
O1273     Zr1275   2.436       .  S
O1273      C1279   1.291       .  A
O1274     Zr1275   2.436       .  S
O1274      C1278   1.291       .  A
Zr1275     O1821   2.434       .  S
Zr1275     O1276   2.339       .  S
Zr1275     O1829   2.337       .  S
Zr1275     O1285   2.341       .  S
Zr1275     O1835   2.337       .  S
O1276     Zr1302   2.339       .  S
O1276     Zr1305   2.340       .  S
O1277     Zr1827   2.338       .  S
O1277     Zr1855   2.334       .  S
O1277     Zr1304   2.335       .  S
C1278      C2087   1.492       .  S
C1279      C2070   1.487       .  S
C1280      C1451   1.479       .  S
C1281      C1462   1.481       .  S
H1282      O1283   0.966       .  S
O1283     Zr1827   2.335       .  S
O1283     Zr1854   2.337   1_554  S
O1283     Zr1304   2.345       .  S
H1284      O1285   0.965       .  S
O1285     Zr1303   2.333       .  S
O1285     Zr1305   2.338       .  S
O1286     Zr1302   2.452       .  S
O1286      C1309   1.295       .  A
O1287     Zr1303   2.443       .  S
O1287      C1310   1.293       .  A
O1288     Zr1304   2.413       .  S
O1288      C1311   1.287       .  A
O1289     Zr1305   2.427       .  S
O1289      C1312   1.290       .  A
O1290     Zr1305   2.432       .  S
O1290      C1313   1.292       .  A
O1291     Zr1304   2.435       .  S
O1291      C1314   1.293       .  A
O1292     Zr1858   2.452       .  S
O1292      C1315   1.294       .  A
O1293     Zr1306   2.445       .  S
O1293      C1316   1.295       .  A
O1294     Zr1304   2.462       .  S
O1294      C1315   1.297       .  A
O1295     Zr1305   2.437       .  S
O1295      C1316   1.291       .  A
O1296     Zr1854   2.442   1_554  S
O1296      C1311   1.295       .  A
O1297     Zr1855   2.412       .  S
O1297      C1314   1.287       .  A
O1298     Zr1303   2.414       .  S
O1298      C1313   1.287       .  A
O1299     Zr1302   2.437       .  S
O1299      C1312   1.293       .  A
O1300     Zr1306   2.450       .  S
O1300      C1309   1.295       .  A
O1301     Zr1306   2.430       .  S
O1301      C1310   1.292       .  A
Zr1302     O1848   2.440       .  S
Zr1302     O1835   2.341       .  S
Zr1302     O1860   2.338       .  S
Zr1302     O1320   2.338       .  S
Zr1303     O1849   2.405       .  S
Zr1303     O1829   2.338       .  S
Zr1303     O1307   2.336       .  S
Zr1303     O1870   2.345       .  S
Zr1304     O1308   2.341       .  S
Zr1304     O1318   2.332       .  S
Zr1305     O1307   2.332       .  S
Zr1305     O1320   2.344       .  S
Zr1306     O1844   2.447       .  S
Zr1306     O1307   2.342       .  S
Zr1306     O1860   2.335       .  S
Zr1306     O1320   2.335       .  S
Zr1306     O1870   2.345       .  S
O1308     Zr1854   2.343   1_554  S
O1308     Zr1858   2.334       .  S
C1309      C2042   1.494       .  S
C1310      C2059   1.489       .  S
C1311      C1336   1.482       .  S
C1312      C1353   1.486       .  S
C1313      C1367   1.475       .  S
C1314      C1325   1.478       .  S
C1315      C1434   1.489       .  S
C1316      C1479   1.492       .  S
H1317      O1318   0.966       .  S
O1318     Zr1855   2.346       .  S
O1318     Zr1858   2.346       .  S
H1319      O1320   0.964       .  S
C1321      C1322   1.404       .  A
C1321      C1326   1.395       .  A
C1321      H1328   1.082       .  S
C1322      C1323   1.413       .  A
C1323      C1324   1.394       .  A
C1323      N1330   1.429       .  S
C1324      C1325   1.402       .  A
C1324      H1329   1.081       .  S
C1325      C1326   1.414       .  A
C1326      N1327   1.430       .  S
N1327      O1331   1.261       .  A
N1327      O1332   1.262       .  A
N1330      O1334   1.261       .  A
N1330      O1333   1.262       .  A
C1335      C1336   1.404       .  A
C1335      C1340   1.395       .  A
C1335      H1342   1.084       .  S
C1336      C1337   1.416       .  A
C1337      C1338   1.394       .  A
C1337      N1344   1.430       .  S
C1338      C1339   1.404       .  A
C1338      H1343   1.084       .  S
C1339      C1340   1.417       .  A
C1340      N1341   1.430       .  S
N1341      O1345   1.262       .  A
N1341      O1346   1.262       .  A
N1344      O1348   1.262       .  A
N1344      O1347   1.262       .  A
C1349      C1350   1.403       .  A
C1349      C1354   1.394       .  A
C1349      H1356   1.083       .  S
C1350      C1351   1.416       .  A
C1351      C1352   1.396       .  A
C1351      N1358   1.429       .  S
C1352      C1353   1.405       .  A
C1352      H1357   1.083       .  S
C1353      C1354   1.415       .  A
C1354      N1355   1.427       .  S
N1355      O1359   1.260       .  A
N1355      O1360   1.261       .  A
N1358      O1362   1.262       .  A
N1358      O1361   1.262       .  A
C1363      C1364   1.401       .  A
C1363      C1368   1.392       .  A
C1363      H1370   1.084       .  S
C1364      C1365   1.413       .  A
C1365      C1366   1.393       .  A
C1365      N1372   1.430       .  S
C1366      C1367   1.401       .  A
C1366      H1371   1.079       .  S
C1367      C1368   1.412       .  A
C1368      N1369   1.427       .  S
N1369      O1373   1.261       .  A
N1369      O1374   1.262       .  A
N1372      O1376   1.262       .  A
N1372      O1375   1.262       .  A
C1377      C1378   1.409       .  A
C1377      C1382   1.404       .  A
C1377      H1384   1.084       .  S
C1378      C1379   1.416       .  A
C1379      C1380   1.398       .  A
C1379      N1386   1.427       .  S
C1380      C1381   1.404       .  A
C1380      H1385   1.083       .  S
C1381      C1382   1.418       .  A
C1382      N1383   1.430       .  S
N1383      O1387   1.262       .  A
N1383      O1388   1.262       .  A
N1386      O1390   1.262       .  A
N1386      O1389   1.261       .  A
C1391      C1392   1.400       .  A
C1391      C1396   1.396       .  A
C1391      H1398   1.084       .  S
C1392      C1393   1.408       .  A
C1393      C1394   1.404       .  A
C1393      N1400   1.431       .  S
C1394      C1395   1.408       .  A
C1394      H1399   1.084       .  S
C1395      C1396   1.411       .  A
C1396      N1397   1.429       .  S
N1397      O1401   1.262       .  A
N1397      O1402   1.262       .  A
N1400      O1404   1.261       .  A
N1400      O1403   1.263       .  A
C1405      C1406   1.406       .  A
C1405      C1410   1.401       .  A
C1405      H1412   1.083       .  S
C1406      C1407   1.418       .  A
C1407      C1408   1.402       .  A
C1407      N1414   1.429       .  S
C1408      C1409   1.407       .  A
C1408      H1413   1.083       .  S
C1409      C1410   1.417       .  A
C1410      N1411   1.427       .  S
N1411      O1415   1.261       .  A
N1411      O1416   1.262       .  A
N1414      O1418   1.262       .  A
N1414      O1417   1.262       .  A
C1419      C1420   1.404       .  A
C1419      C1424   1.398       .  A
C1419      H1426   1.081       .  S
C1420      C1421   1.416       .  A
C1421      C1422   1.399       .  A
C1421      N1428   1.429       .  S
C1422      C1423   1.406       .  A
C1422      H1427   1.084       .  S
C1423      C1424   1.416       .  A
C1424      N1425   1.429       .  S
N1425      O1429   1.262       .  A
N1425      O1430   1.262       .  A
N1428      O1432   1.262       .  A
N1428      O1431   1.260       .  A
C1433      C1434   1.410       .  A
C1433      C1438   1.408       .  A
C1433      H1440   1.084       .  S
C1434      C1435   1.412       .  A
C1435      C1436   1.400       .  A
C1435      N1442   1.426       .  S
C1436      C1437   1.397       .  A
C1436      H1441   1.081       .  S
C1437      C1438   1.409       .  A
C1438      N1439   1.431       .  S
N1439      O1443   1.262       .  A
N1439      O1444   1.262       .  A
N1442      O1446   1.261       .  A
N1442      O1445   1.262       .  A
C1447      C1448   1.403       .  A
C1447      C1452   1.400       .  A
C1447      H1454   1.084       .  S
C1448      C1449   1.416       .  A
C1449      C1450   1.397       .  A
C1449      N1456   1.429       .  S
C1450      C1451   1.401       .  A
C1450      H1455   1.084       .  S
C1451      C1452   1.414       .  A
C1452      N1453   1.429       .  S
N1453      O1457   1.261       .  A
N1453      O1458   1.262       .  A
N1456      O1460   1.262       .  A
N1456      O1459   1.262       .  A
C1461      C1462   1.401       .  A
C1461      C1466   1.395       .  A
C1461      H1468   1.080       .  S
C1462      C1463   1.413       .  A
C1463      C1464   1.395       .  A
C1463      N1470   1.428       .  S
C1464      C1465   1.404       .  A
C1464      H1469   1.084       .  S
C1465      C1466   1.416       .  A
C1466      N1467   1.428       .  S
N1467      O1471   1.261       .  A
N1467      O1472   1.262       .  A
N1470      O1474   1.262       .  A
N1470      O1473   1.261       .  A
C1475      C1476   1.404       .  A
C1475      C1480   1.398       .  A
C1475      H1482   1.084       .  S
C1476      C1477   1.417       .  A
C1477      C1478   1.399       .  A
C1477      N1484   1.426       .  S
C1478      C1479   1.404       .  A
C1478      H1483   1.084       .  S
C1479      C1480   1.415       .  A
C1480      N1481   1.426       .  S
N1481      O1485   1.261       .  A
N1481      O1486   1.261       .  A
N1484      O1488   1.259       .  A
N1484      O1487   1.260       .  A
C1489      C2042   1.408       .  A
C1489      C1494   1.406       .  A
C1489      H1496   1.084       .  S
C1490      C1861   1.496       .  S
C1490      C2041   1.406   1_556  A
C1490      C1491   1.418       .  A
C1491      C1492   1.403       .  A
C1491      N1498   1.429       .  S
C1492      C1493   1.407   1_556  A
C1492      H1497   1.084       .  S
C1493      C2046   1.417       .  A
C1494      C2045   1.415       .  A
C1494      N1495   1.430       .  S
N1495      O1499   1.262       .  A
N1495      O1500   1.262       .  A
N1498      O2054   1.262       .  A
N1498      O1501   1.262       .  A
O1502      N2050   1.262       .  A
C1503      C1504   1.404   1_556  A
C1503      C1508   1.397       .  A
C1503      H1510   1.084       .  S
C1504      C2057   1.416       .  A
C1505      C2056   1.415       .  A
C1505      C1506   1.399       .  A
C1505      N1512   1.430       .  S
C1506      C2059   1.407       .  A
C1506      H1511   1.084       .  S
C1507      C1862   1.493       .  S
C1507      C2058   1.405       .  A
C1507      C1508   1.417   1_554  A
C1508      N1509   1.425       .  S
N1509      O1513   1.261       .  A
N1509      O1514   1.261   1_556  A
N1512      O1516   1.262       .  A
N1512      O1515   1.262       .  A
C1517      C1518   1.404   1_554  A
C1517      C1522   1.400       .  A
C1517      H1524   1.084       .  S
C1518      C1831   1.485       .  S
C1518      C2071   1.414       .  A
C1519      C2070   1.414       .  A
C1519      C1520   1.399       .  A
C1519      N1526   1.428       .  S
C1520      C2073   1.404       .  A
C1520      H1525   1.084       .  S
C1521      C2072   1.401   1_554  A
C1521      C1522   1.416       .  A
C1522      N1523   1.430       .  S
N1523      O1527   1.262       .  A
N1523      O2080   1.262       .  A
N1526      O1530   1.262       .  A
N1526      O2081   1.262       .  A
O1528      N2075   1.262       .  A
O1529      N2078   1.261       .  A
C1531      C1532   1.403       .  A
C1531      C1536   1.402       .  A
C1531      H1538   1.084       .  S
C1532      C2085   1.411   1_554  A
C1533      C2084   1.414       .  A
C1533      C2086   1.401       .  A
C1533      N1540   1.431       .  S
C1534      C2085   1.399       .  A
C1534      C1535   1.404   1_556  A
C1534      H1539   1.077       .  S
C1535      C1830   1.489       .  S
C1535      C1536   1.415       .  A
C1536      N1537   1.429       .  S
N1537      O2093   1.262       .  A
N1537      O1542   1.262       .  A
N1540      O2096   1.262       .  A
N1540      O1543   1.262       .  A
O1541      N2089   1.262       .  A
O1544      N2092   1.262       .  A
C1545      C1546   1.403       .  A
C1545      C1550   1.399       .  A
C1545      H1552   1.084       .  S
C1547      C1548   1.403       .  A
C1547      N1554   1.431       .  S
C1548      H1553   1.084       .  S
C1549      C1550   1.412       .  A
C1550      N1551   1.429       .  S
N1551      O1555   1.262       .  A
N1551      O1556   1.262       .  A
N1554      O1558   1.262       .  A
N1554      O1557   1.262       .  A
C1559      C1564   1.401       .  A
C1559      H1566   1.084       .  S
C1560      C1561   1.416       .  A
C1561      C1562   1.406       .  A
C1561      N1568   1.429       .  S
C1562      C1563   1.407       .  A
C1562      H1567   1.084       .  S
C1564      N1565   1.429       .  S
N1565      O1569   1.262       .  A
N1568      O1572   1.261       .  A
C1573      C1578   1.405       .  A
C1573      H1580   1.084       .  S
C1574      C1575   1.411       .  A
C1575      C1576   1.395       .  A
C1575      N1582   1.426       .  S
C1576      C1577   1.404       .  A
C1576      H1581   1.084       .  S
C1578      N1579   1.430       .  S
N1579      O1583   1.262       .  A
N1579      O1584   1.262       .  A
N1582      O1586   1.261       .  A
N1582      O1585   1.262       .  A
C1587      C1588   1.405       .  A
C1587      C1592   1.399       .  A
C1587      H1594   1.084       .  S
C1589      C1590   1.401       .  A
C1589      N1596   1.429       .  S
C1590      H1595   1.084       .  S
C1591      C1592   1.415       .  A
C1592      N1593   1.429       .  S
N1593      O1598   1.262       .  A
N1596      O1599   1.262       .  A
C1601      C1602   1.401   1_655  A
C1601      C1606   1.398       .  A
C1601      H1608   1.084       .  S
C1602      C3811   1.414       .  A
C1603      C3810   1.414       .  A
C1603      C1604   1.400       .  A
C1603      N1610   1.427       .  S
C1604      C3813   1.404       .  A
C1604      H1609   1.083       .  S
C1605      C3812   1.403   1_655  A
C1605      C1606   1.413       .  A
C1606      N1607   1.424       .  S
N1607      O1611   1.262       .  A
N1607      O1612   1.261       .  A
N1610      O1614   1.261       .  A
N1610      O1613   1.262       .  A
C1615      C1616   1.400       .  A
C1615      C1620   1.394       .  A
C1615      H1622   1.084       .  S
C1616      C3825   1.410   1_455  A
C1617      C3824   1.408       .  A
C1617      C1618   1.396       .  A
C1617      N1624   1.431       .  S
C1618      C3827   1.403       .  A
C1618      H1623   1.077       .  S
C1619      C3826   1.404   1_455  A
C1619      C1620   1.409       .  A
C1620      N1621   1.425       .  S
N1621      O1625   1.260       .  A
N1621      O1626   1.262       .  A
N1624      O1628   1.262       .  A
N1624      O1627   1.262       .  A
C1629      C3838   1.400       .  A
C1629      C1634   1.395       .  A
C1629      H1636   1.084       .  S
C1630      C3837   1.400   1_455  A
C1630      C1631   1.408       .  A
C1631      C1632   1.398       .  A
C1631      N1638   1.432       .  S
C1632      C1633   1.407   1_455  A
C1632      H1637   1.084       .  S
C1633      C3842   1.412       .  A
C1634      C3841   1.413       .  A
C1634      N1635   1.429       .  S
N1635      O1639   1.262       .  A
N1635      O1640   1.262       .  A
N1638      O1642   1.262       .  A
N1638      O1641   1.262       .  A
C1643      C3852   1.403       .  A
C1643      C1648   1.396       .  A
C1643      H1650   1.081       .  S
C1644      C3851   1.404   1_455  A
C1644      C1645   1.412       .  A
C1645      C1646   1.397       .  A
C1645      N1652   1.429       .  S
C1646      C1647   1.404       .  A
C1646      H1651   1.082       .  S
C1647      C3856   1.414   1_455  A
C1648      C3855   1.413       .  A
C1648      N1649   1.429       .  S
N1649      O1653   1.262       .  A
N1649      O1654   1.262       .  A
N1652      O1656   1.262       .  A
N1652      O1655   1.262       .  A
O1657     Zr1693   2.429       .  S
O1657      C1668   1.290       .  A
O1658     Zr1692   2.419       .  S
O1658      C1669   1.288   1_455  A
O1659     Zr1665   2.437   1_455  S
O1659      C1670   1.293       .  A
O1660     Zr3873   2.436       .  S
O1660      C1671   1.292       .  A
O1661     Zr1695   2.441       .  S
O1661      C1671   1.294       .  A
O1662     Zr1694   2.423       .  S
O1662      C1670   1.289       .  A
O1663      C1669   1.296       .  A
O1664     Zr1665   2.443       .  S
O1664      C1668   1.294       .  A
Zr1665     O3868   2.435       .  S
Zr1665     O3322   2.339       .  S
Zr1665     O1667   2.340   1_655  S
Zr1665     O3883   2.341       .  S
O1666     Zr3321   2.333   1_556  S
O1666     Zr3900   2.334       .  S
O1667     Zr1693   2.343   1_455  S
O1667     Zr1694   2.341       .  S
C1668      C2196   1.477       .  S
C1669      C2154   1.490       .  S
C1670      C2084   1.483       .  S
C1671      C2056   1.489       .  S
H1672      O1673   0.959       .  S
O1673     Zr1692   2.338       .  S
H1674      O1675   0.958       .  S
O1675     Zr3873   2.341       .  S
O1675     Zr3901   2.332       .  S
O1675     Zr1695   2.338       .  S
O1676      C1699   1.289       .  A
O1677      C1700   1.290   1_655  A
O1678      C1701   1.291       .  A
O1679      C1702   1.293       .  A
O1680     Zr1695   2.434       .  S
O1680      C1703   1.291       .  A
O1681     Zr1694   2.443       .  S
O1681      C1704   1.294       .  A
O1682     Zr1696   2.447       .  S
O1682      C1705   1.295       .  A
O1683     Zr3904   2.447       .  S
O1683      C1706   1.293       .  A
O1684      C1705   1.290       .  A
O1685      C1706   1.295       .  A
O1686     Zr1692   2.457       .  S
O1686      C1701   1.296       .  A
O1687     Zr1693   2.436   1_455  S
O1687      C1704   1.291       .  A
O1688     Zr3901   2.446       .  S
O1688      C1703   1.295       .  A
O1689     Zr3900   2.446       .  S
O1689      C1702   1.294       .  A
O1690      C1699   1.288       .  A
O1691     Zr1696   2.412       .  S
O1691      C1700   1.287       .  A
Zr1692     O3897   2.445   1_455  S
Zr1692     O3874   2.336   1_455  S
Zr1692     O2814   2.343   1_455  S
Zr1693     O3896   2.439       .  S
Zr1693     O3883   2.329       .  S
Zr1693     O2801   2.336       .  S
Zr1696     O3891   2.452   1_455  S
Zr1696     O3905   2.335   1_455  S
Zr1696     O3366   2.340   1_455  S
Zr1696     O1708   2.336       .  S
O1697     Zr2797   2.334       .  S
O1697     Zr3904   2.335       .  S
C1699      C2168   1.468       .  S
C1700      C2182   1.470       .  S
C1701      C2112   1.489       .  S
C1702      C2098   1.481       .  S
C1703      C2143   1.489       .  S
C1704      C2129   1.485       .  S
C1705      C2073   1.486       .  S
C1706      C2045   1.492       .  S
H1707      O1708   0.946       .  S
H1709      O1710   0.966       .  S
O1710     Zr2796   2.340       .  S
O1710     Zr3352   2.340       .  S
O1711     Zr1747   2.436   1_455  S
O1711      C1722   1.292       .  A
O1712     Zr1746   2.433       .  S
O1712      C1723   1.291       .  A
O1713     Zr1719   2.433   1_455  S
O1713      C1724   1.291       .  A
O1714     Zr3927   2.447       .  S
O1714      C1725   1.295       .  A
O1715     Zr1749   2.425       .  S
O1715      C1725   1.289       .  A
O1716     Zr1748   2.445       .  S
O1716      C1724   1.294       .  A
O1717     Zr1719   2.450       .  S
O1717      C1723   1.295       .  A
O1718     Zr1719   2.439       .  S
O1718      C1722   1.293   1_655  A
Zr1719     O3922   2.440       .  S
Zr1719     O3928   2.335       .  S
Zr1719     O1721   2.339   1_655  S
Zr1719     O3937   2.341       .  S
Zr1719     O1727   2.340   1_655  S
O1720     Zr3927   2.336       .  S
O1720     Zr3954   2.340       .  S
O1720     Zr1749   2.340       .  S
O1721     Zr1747   2.334   1_455  S
O1721     Zr1748   2.332       .  S
C1722      C2199   1.477       .  S
C1723      C2157   1.493       .  S
C1724      C1958   1.484       .  S
C1725      C1930   1.491       .  S
H1726      O1727   0.965       .  S
O1727     Zr1746   2.340   1_455  S
O1727     Zr1748   2.345       .  S
H1728      O1729   0.969       .  S
O1729     Zr3927   2.340       .  S
O1729     Zr3955   2.346       .  S
O1729     Zr1749   2.347       .  S
O1730     Zr1746   2.429   1_455  S
O1730      C1753   1.291       .  A
O1731     Zr1747   2.437   1_455  S
O1731      C1754   1.293   1_455  A
O1732     Zr1748   2.420       .  S
O1732      C1755   1.288       .  A
O1733     Zr1749   2.454       .  S
O1733      C1756   1.296       .  A
O1734     Zr1749   2.438       .  S
O1734      C1757   1.292       .  A
O1735     Zr1748   2.431       .  S
O1735      C1758   1.290       .  A
O1736     Zr1750   2.426   1_455  S
O1736      C1759   1.289       .  A
O1737     Zr3958   2.440       .  S
O1737      C1760   1.292       .  A
O1738     Zr1748   2.455       .  S
O1738      C1759   1.297       .  A
O1739     Zr1749   2.437       .  S
O1739      C1760   1.292       .  A
O1740     Zr1746   2.453   1_455  S
O1740      C1755   1.297       .  A
O1741     Zr1747   2.449   1_455  S
O1741      C1758   1.295       .  A
O1742     Zr3955   2.444       .  S
O1742      C1757   1.294       .  A
O1743     Zr3954   2.440       .  S
O1743      C1756   1.292       .  A
O1744     Zr1750   2.426   1_455  S
O1744      C1753   1.290       .  A
O1745     Zr1750   2.422       .  S
O1745      C1754   1.289       .  A
Zr1746     O3951   2.458       .  S
Zr1746     O3928   2.339       .  S
Zr1746     O1752   2.341   1_655  S
Zr1746     O3972   2.344       .  S
Zr1747     O3950   2.444       .  S
Zr1747     O3937   2.345       .  S
Zr1747     O3959   2.342       .  S
Zr1747     O1762   2.336   1_655  S
Zr1748     O1752   2.339       .  S
Zr1748     O1762   2.337       .  S
Zr1749     O1751   2.340       .  S
Zr1749     O1764   2.338       .  S
Zr1750     O3945   2.440       .  S
Zr1750     O3959   2.334       .  S
Zr1750     O1752   2.338   1_655  S
Zr1750     O3972   2.339       .  S
Zr1750     O1762   2.346   1_655  S
O1751     Zr3955   2.344       .  S
O1751     Zr3958   2.333       .  S
C1753      C2171   1.474       .  S
C1754      C2185   1.477       .  S
C1755      C2017   1.490       .  S
C1756      C2028   1.490       .  S
C1757      C1989   1.478       .  S
C1758      C2000   1.486       .  S
C1759      C1972   1.491       .  S
C1760      C1947   1.481       .  S
H1761      O1762   0.967       .  S
H1763      O1764   0.966       .  S
O1764     Zr3954   2.345       .  S
O1764     Zr3958   2.338       .  S
O1765     Zr1801   2.435       .  S
O1765      C1776   1.291       .  A
O1766     Zr1800   2.435       .  S
O1766      C1777   1.293       .  A
O1767     Zr1773   2.435   1_565  S
O1767      C1778   1.291       .  A
O1768      C1779   1.289       .  A
O1769     Zr1803   2.426       .  S
O1769      C1779   1.290       .  A
O1770     Zr1802   2.445       .  S
O1770      C1778   1.294       .  A
O1771     Zr1773   2.446       .  S
O1771      C1777   1.294       .  A
O1772     Zr1773   2.440   1_565  S
O1772      C1776   1.294       .  A
Zr1773     O1775   2.334   1_545  S
Zr1773     O1781   2.344   1_545  S
O1774     Zr1803   2.337       .  S
O1775     Zr1801   2.334       .  S
O1775     Zr1802   2.332       .  S
C1778      C1891   1.481       .  S
C1779      C1874   1.476       .  S
H1780      O1781   0.964       .  S
O1781     Zr1800   2.344   1_565  S
O1781     Zr1802   2.342       .  S
H1782      O1783   0.965       .  S
O1783     Zr1803   2.334       .  S
O1784     Zr1800   2.448       .  S
O1784      C1807   1.294       .  A
O1785     Zr1801   2.434       .  S
O1785      C1808   1.292       .  A
O1786     Zr1802   2.429       .  S
O1786      C1809   1.290       .  A
O1787     Zr1803   2.449       .  S
O1787      C1810   1.294       .  A
O1788     Zr1803   2.445       .  S
O1788      C1811   1.295       .  A
O1789     Zr1802   2.436       .  S
O1789      C1812   1.292       .  A
O1790     Zr1804   2.428   1_565  S
O1790      C1813   1.290       .  A
O1791      C1814   1.290       .  A
O1792     Zr1802   2.445       .  S
O1792      C1813   1.295       .  A
O1793     Zr1803   2.407       .  S
O1793      C1814   1.286       .  A
O1794     Zr1800   2.454   1_565  S
O1794      C1809   1.296       .  A
O1795     Zr1801   2.419       .  S
O1795      C1812   1.289       .  A
O1796      C1811   1.288       .  A
O1797      C1810   1.293       .  A
O1798     Zr1804   2.444       .  S
O1798      C1807   1.294       .  A
O1799     Zr1804   2.446       .  S
O1799      C1808   1.294   1_545  A
Zr1800     O1806   2.336   1_545  S
Zr1801     O1816   2.340       .  S
Zr1802     O1806   2.339       .  S
Zr1802     O1816   2.341       .  S
Zr1803     O1805   2.341       .  S
Zr1803     O1818   2.342       .  S
Zr1804     O1806   2.339   1_545  S
Zr1804     O1816   2.342   1_545  S
C1809      C1975   1.492       .  S
C1810      C1961   1.486       .  S
C1811      C1933   1.490       .  S
C1812      C1944   1.472       .  S
C1813      C1902   1.492       .  S
C1814      C1916   1.471       .  S
H1815      O1816   0.966       .  S
H1817      O1818   0.966       .  S
O1819     Zr1855   2.447       .  S
O1819      C1830   1.294       .  A
O1820     Zr1854   2.444       .  S
O1820      C1831   1.294       .  A
O1821      C1832   1.291       .  A
O1822     Zr1827   2.424   1_556  S
O1822      C1833   1.289       .  A
O1823     Zr1857   2.444       .  S
O1823      C1833   1.295       .  A
O1824     Zr1856   2.448       .  S
O1824      C1832   1.295       .  A
O1825     Zr1827   2.431   1_556  S
O1825      C1831   1.290       .  A
O1826     Zr1827   2.438       .  S
O1826      C1830   1.291       .  A
Zr1827     O1828   2.340   1_554  S
Zr1827     O1837   2.340   1_554  S
O1828     Zr1854   2.335       .  S
O1828     Zr1857   2.339       .  S
O1829     Zr1856   2.338       .  S
C1832      C2003   1.486       .  S
C1833      C2014   1.486       .  S
H1834      O1835   0.966       .  S
O1835     Zr1856   2.343       .  S
H1836      O1837   0.964       .  S
O1837     Zr1855   2.335   1_556  S
O1837     Zr1857   2.344       .  S
O1838     Zr1854   2.438       .  S
O1838      C1861   1.292       .  A
O1839     Zr1855   2.433       .  S
O1839      C1862   1.291       .  A
O1840     Zr1856   2.439       .  S
O1840      C1863   1.293       .  A
O1841     Zr1857   2.430       .  S
O1841      C1864   1.290       .  A
O1842     Zr1857   2.413       .  S
O1842      C1865   1.289       .  A
O1843     Zr1856   2.437       .  S
O1843      C1866   1.293       .  A
O1844      C1867   1.294       .  A
O1845     Zr1858   2.442   1_556  S
O1845      C1868   1.294       .  A
O1846     Zr1856   2.459       .  S
O1846      C1867   1.296       .  A
O1847     Zr1857   2.456       .  S
O1847      C1868   1.295       .  A
O1848      C1863   1.294       .  A
O1849      C1866   1.285       .  A
O1850     Zr1855   2.421   1_556  S
O1850      C1865   1.288       .  A
O1851     Zr1854   2.447       .  S
O1851      C1864   1.295       .  A
O1852     Zr1858   2.459   1_556  S
O1852      C1861   1.297       .  A
O1853     Zr1858   2.448       .  S
O1853      C1862   1.296       .  A
Zr1854     O1872   2.339       .  S
Zr1855     O1859   2.341   1_554  S
Zr1856     O1860   2.342       .  S
Zr1856     O1870   2.341       .  S
Zr1857     O1859   2.335       .  S
Zr1857     O1872   2.339       .  S
Zr1858     O1859   2.343   1_554  S
Zr1858     O1872   2.342   1_554  S
C1863      C1888   1.479       .  S
C1864      C1905   1.494       .  S
C1865      C1919   1.474       .  S
C1866      C1877   1.475       .  S
C1867      C1986   1.487       .  S
C1868      C2031   1.491       .  S
H1869      O1870   0.966       .  S
H1871      O1872   0.965       .  S
C1873      C1874   1.404       .  A
C1873      C1878   1.394       .  A
C1873      H1880   1.082       .  S
C1874      C1875   1.411       .  A
C1875      C1876   1.391       .  A
C1875      N1882   1.429       .  S
C1876      C1877   1.402       .  A
C1876      H1881   1.081       .  S
C1877      C1878   1.414       .  A
C1878      N1879   1.431       .  S
N1879      O1883   1.262       .  A
N1879      O1884   1.262       .  A
N1882      O1886   1.262       .  A
N1882      O1885   1.262       .  A
C1887      C1888   1.404       .  A
C1887      C1892   1.400       .  A
C1887      H1894   1.084       .  S
C1888      C1889   1.412       .  A
C1889      C1890   1.399       .  A
C1889      N1896   1.430       .  S
C1890      C1891   1.404       .  A
C1890      H1895   1.084       .  S
C1891      C1892   1.414       .  A
C1892      N1893   1.430       .  S
N1893      O1897   1.262       .  A
N1893      O1898   1.262       .  A
N1896      O1900   1.262       .  A
N1896      O1899   1.262       .  A
C1901      C1902   1.406       .  A
C1901      C1906   1.399       .  A
C1901      H1908   1.083       .  S
C1902      C1903   1.417       .  A
C1903      C1904   1.398       .  A
C1903      N1910   1.429       .  S
C1904      C1905   1.406       .  A
C1904      H1909   1.083       .  S
C1905      C1906   1.418       .  A
C1906      N1907   1.429       .  S
N1907      O1911   1.262       .  A
N1907      O1912   1.262       .  A
N1910      O1914   1.262       .  A
N1910      O1913   1.262       .  A
C1915      C1916   1.402       .  A
C1915      C1920   1.389       .  A
C1915      H1922   1.084       .  S
C1916      C1917   1.412       .  A
C1917      C1918   1.391       .  A
C1917      N1924   1.429       .  S
C1918      C1919   1.404       .  A
C1918      H1923   1.082       .  S
C1919      C1920   1.411       .  A
C1920      N1921   1.426       .  S
N1921      O1925   1.260       .  A
N1921      O1926   1.261       .  A
N1924      O1928   1.261       .  A
N1924      O1927   1.261       .  A
C1929      C1930   1.405       .  A
C1929      C1934   1.397       .  A
C1929      H1936   1.084       .  S
C1930      C1931   1.418       .  A
C1931      C1932   1.398       .  A
C1931      N1938   1.429       .  S
C1932      C1933   1.404       .  A
C1932      H1937   1.083       .  S
C1933      C1934   1.417       .  A
C1934      N1935   1.428       .  S
N1935      O1939   1.261       .  A
N1935      O1940   1.262       .  A
N1938      O1942   1.262       .  A
N1938      O1941   1.262       .  A
C1943      C1944   1.401       .  A
C1943      C1948   1.396       .  A
C1943      H1950   1.084       .  S
C1944      C1945   1.409       .  A
C1945      C1946   1.401       .  A
C1945      N1952   1.431       .  S
C1946      C1947   1.408       .  A
C1946      H1951   1.084       .  S
C1947      C1948   1.413       .  A
C1948      N1949   1.429       .  S
N1949      O1953   1.262       .  A
N1949      O1954   1.262       .  A
N1952      O1956   1.262       .  A
N1952      O1955   1.262       .  A
C1957      C1958   1.403       .  A
C1957      C1962   1.399       .  A
C1957      H1964   1.084       .  S
C1958      C1959   1.414       .  A
C1959      C1960   1.401       .  A
C1959      N1966   1.429       .  S
C1960      C1961   1.406       .  A
C1960      H1965   1.084       .  S
C1961      C1962   1.413       .  A
C1962      N1963   1.426       .  S
N1963      O1967   1.261       .  A
N1963      O1968   1.262       .  A
N1966      O1970   1.262       .  A
N1966      O1969   1.262       .  A
C1971      C1972   1.403       .  A
C1971      C1976   1.398       .  A
C1971      H1978   1.082       .  S
C1972      C1973   1.418       .  A
C1973      C1974   1.401       .  A
C1973      N1980   1.430       .  S
C1974      C1975   1.405       .  A
C1974      H1979   1.084       .  S
C1975      C1976   1.417       .  A
C1976      N1977   1.429       .  S
N1977      O1981   1.262       .  A
N1977      O1982   1.262       .  A
N1980      O1984   1.262       .  A
N1980      O1983   1.261       .  A
C1985      C1986   1.409       .  A
C1985      C1990   1.406       .  A
C1985      H1992   1.084       .  S
C1986      C1987   1.413       .  A
C1987      C1988   1.400       .  A
C1987      N1994   1.427       .  S
C1988      C1989   1.400       .  A
C1988      H1993   1.083       .  S
C1989      C1990   1.409       .  A
C1990      N1991   1.431       .  S
N1991      O1995   1.262       .  A
N1991      O1996   1.262       .  A
N1994      O1998   1.261       .  A
N1994      O1997   1.262       .  A
C1999      C2000   1.404       .  A
C1999      C2004   1.399       .  A
C1999      H2006   1.084       .  S
C2000      C2001   1.415       .  A
C2001      C2002   1.401       .  A
C2001      N2008   1.430       .  S
C2002      C2003   1.405       .  A
C2002      H2007   1.084       .  S
C2003      C2004   1.415       .  A
C2004      N2005   1.429       .  S
N2005      O2009   1.262       .  A
N2005      O2010   1.262       .  A
N2008      O2012   1.262       .  A
N2008      O2011   1.262       .  A
C2013      C2014   1.403       .  A
C2013      C2018   1.397       .  A
C2013      H2020   1.083       .  S
C2014      C2015   1.415       .  A
C2015      C2016   1.398       .  A
C2015      N2022   1.430       .  S
C2016      C2017   1.404       .  A
C2016      H2021   1.081       .  S
C2017      C2018   1.418       .  A
C2018      N2019   1.428       .  S
N2019      O2023   1.261       .  A
N2019      O2024   1.262       .  A
N2022      O2026   1.262       .  A
N2022      O2025   1.261       .  A
C2027      C2028   1.404       .  A
C2027      C2032   1.402       .  A
C2027      H2034   1.083       .  S
C2028      C2029   1.414       .  A
C2029      C2030   1.402       .  A
C2029      N2036   1.428       .  S
C2030      C2031   1.405       .  A
C2030      H2035   1.084       .  S
C2031      C2032   1.413       .  A
C2032      N2033   1.427       .  S
N2033      O2037   1.262       .  A
N2033      O2038   1.262       .  A
N2036      O2040   1.262       .  A
N2036      O2039   1.262       .  A
C2041      C2046   1.402       .  A
C2041      H2048   1.084       .  S
C2042      C2043   1.414       .  A
C2043      C2044   1.401       .  A
C2043      N2050   1.428       .  S
C2044      C2045   1.405       .  A
C2044      H2049   1.084       .  S
C2046      N2047   1.429       .  S
N2047      O2051   1.262       .  A
N2047      O2052   1.261       .  A
N2050      O2053   1.262       .  A
C2055      C2056   1.407       .  A
C2055      C2060   1.398       .  A
C2055      H2062   1.084       .  S
C2057      C2058   1.398       .  A
C2057      N2064   1.428       .  S
C2058      H2063   1.083       .  S
C2059      C2060   1.414       .  A
C2060      N2061   1.429       .  S
N2061      O2065   1.262       .  A
N2061      O2066   1.262       .  A
N2064      O2068   1.261       .  A
N2064      O2067   1.262   1_554  A
C2069      C2070   1.405       .  A
C2069      C2074   1.400       .  A
C2069      H2076   1.084       .  S
C2071      C2072   1.396       .  A
C2071      N2078   1.427       .  S
C2072      H2077   1.084       .  S
C2073      C2074   1.415       .  A
C2074      N2075   1.429       .  S
N2075      O2079   1.262       .  A
N2078      O2082   1.262       .  A
C2083      C2084   1.402       .  A
C2083      C2088   1.397       .  A
C2083      H2090   1.084       .  S
C2085      N2092   1.431       .  S
C2086      C2087   1.408       .  A
C2086      H2091   1.081       .  S
C2087      C2088   1.416       .  A
C2088      N2089   1.428       .  S
N2089      O2094   1.262       .  A
N2092      O2095   1.262       .  A
C2097      C2098   1.402       .  A
C2097      C2102   1.401       .  A
C2097      H2104   1.084       .  S
C2099      C2100   1.402       .  A
C2099      N2106   1.430       .  S
C2100      H2105   1.084       .  S
C2101      C2102   1.413       .  A
C2102      N2103   1.429       .  S
N2103      O2107   1.262       .  A
N2103      O2108   1.262       .  A
N2106      O2110   1.262       .  A
N2106      O2109   1.262       .  A
C2111      C2116   1.401       .  A
C2111      H2118   1.081       .  S
C2112      C2113   1.415       .  A
C2113      C2114   1.403       .  A
C2113      N2120   1.428       .  S
C2114      C2115   1.404       .  A
C2114      H2119   1.084       .  S
C2116      N2117   1.429       .  S
N2117      O2121   1.262       .  A
N2120      O2124   1.261       .  A
C2125      C2130   1.399       .  A
C2125      H2132   1.084       .  S
C2126      C2127   1.413       .  A
C2127      C2128   1.398       .  A
C2127      N2134   1.426       .  S
C2128      C2129   1.403       .  A
C2128      H2133   1.084       .  S
C2130      N2131   1.430       .  S
N2131      O2135   1.262       .  A
N2131      O2136   1.262       .  A
N2134      O2138   1.262       .  A
N2134      O2137   1.262       .  A
C2139      C2140   1.406       .  A
C2139      C2144   1.402       .  A
C2139      H2146   1.084       .  S
C2141      C2142   1.399       .  A
C2141      N2148   1.430       .  S
C2142      H2147   1.084       .  S
C2143      C2144   1.417       .  A
C2144      N2145   1.429       .  S
N2145      O2150   1.262       .  A
N2148      O2151   1.262       .  A
C2153      C2154   1.402   1_455  A
C2153      C2158   1.396       .  A
C2153      H2160   1.084       .  S
C2154      C4363   1.418       .  A
C2155      C4362   1.416       .  A
C2155      C2156   1.403       .  A
C2155      N2162   1.430       .  S
C2156      C4365   1.406       .  A
C2156      H2161   1.084       .  S
C2157      C4364   1.406       .  A
C2157      C2158   1.416   1_655  A
C2158      N2159   1.427       .  S
N2159      O2163   1.260   1_455  A
N2159      O2164   1.261       .  A
N2162      O2166   1.262       .  A
N2162      O2165   1.262       .  A
C2167      C2168   1.398       .  A
C2167      C2172   1.394       .  A
C2167      H2174   1.084       .  S
C2168      C4377   1.410   1_455  A
C2169      C4376   1.411       .  A
C2169      C2170   1.395       .  A
C2169      N2176   1.429       .  S
C2170      C4379   1.403       .  A
C2170      H2175   1.081       .  S
C2171      C4378   1.402   1_455  A
C2171      C2172   1.412       .  A
C2172      N2173   1.425       .  S
N2173      O2177   1.261       .  A
N2173      O2178   1.262       .  A
N2176      O2180   1.262       .  A
N2176      O2179   1.262       .  A
C2181      C4390   1.399       .  A
C2181      C2186   1.393       .  A
C2181      H2188   1.084       .  S
C2182      C4389   1.400   1_455  A
C2182      C2183   1.412       .  A
C2183      C2184   1.396       .  A
C2183      N2190   1.432       .  S
C2184      C2185   1.406   1_455  A
C2184      H2189   1.084       .  S
C2185      C4394   1.415       .  A
C2186      C4393   1.414       .  A
C2186      N2187   1.429       .  S
N2187      O2191   1.262       .  A
N2187      O2192   1.262       .  A
N2190      O2194   1.262       .  A
N2190      O2193   1.262       .  A
C2195      C4404   1.403       .  A
C2195      C2200   1.398       .  A
C2195      H2202   1.084       .  S
C2196      C4403   1.403   1_655  A
C2196      C2197   1.413       .  A
C2197      C2198   1.398       .  A
C2197      N2204   1.430       .  S
C2198      C2199   1.403   1_655  A
C2198      H2203   1.084       .  S
C2199      C4408   1.412       .  A
C2200      C4407   1.412       .  A
C2200      N2201   1.430       .  S
N2201      O2205   1.262       .  A
N2201      O2206   1.262       .  A
N2204      O2208   1.262       .  A
N2204      O2207   1.262       .  A
O2209     Zr2245   2.415   1_545  S
O2209      C2220   1.288       .  A
O2210     Zr2244   2.433   1_545  S
O2210      C2221   1.291       .  A
O2211     Zr2217   2.438       .  S
O2211      C2222   1.293   1_556  A
O2212      C2223   1.291       .  A
O2213     Zr2247   2.451   1_545  S
O2213      C2223   1.296       .  A
O2214     Zr2246   2.431   1_545  S
O2214      C2222   1.291       .  A
O2215     Zr2769   2.445       .  S
O2215      C2221   1.294       .  A
O2216     Zr2217   2.447   1_554  S
O2216      C2220   1.295       .  A
Zr2217     O2767   2.453       .  S
Zr2217     O2219   2.341   1_556  S
Zr2217     O2777   2.336       .  S
O2218     Zr2799   2.339   1_545  S
O2219     Zr2245   2.347   1_545  S
O2219     Zr2246   2.337   1_545  S
C2220      C2748   1.478       .  S
C2221      C2706   1.482       .  S
C2222      C2636   1.481       .  S
C2223      C2608   1.492       .  S
H2224      O2225   0.949       .  S
O2225     Zr2769   2.345       .  S
O2225     Zr2244   2.336   1_545  S
O2225     Zr2798   2.340   1_545  S
H2226      O2227   0.977       .  S
O2227     Zr2247   2.339   1_544  S
O2228     Zr3348   2.416       .  S
O2228      C2251   1.289       .  A
O2229     Zr3349   2.424       .  S
O2229      C2252   1.290       .  A
O2230     Zr2798   2.440       .  S
O2230      C2253   1.292       .  A
O2231     Zr2799   2.426       .  S
O2231      C2254   1.291       .  A
O2232     Zr2247   2.428   1_554  S
O2232      C2255   1.290       .  A
O2233     Zr2246   2.441       .  S
O2233      C2256   1.294       .  A
O2234     Zr2248   2.440       .  S
O2234      C2257   1.294       .  A
O2235      C2258   1.292       .  A
O2236     Zr3350   2.425       .  S
O2236      C2257   1.289       .  A
O2237     Zr3351   2.454   1_554  S
O2237      C2258   1.297       .  A
O2238     Zr2244   2.458       .  S
O2238      C2253   1.297       .  A
O2239     Zr2245   2.447       .  S
O2239      C2256   1.293       .  A
O2240      C2255   1.296       .  A
O2241      C2254   1.293       .  A
O2242     Zr2800   2.435       .  S
O2242      C2251   1.292       .  A
O2243     Zr2248   2.419       .  S
O2243      C2252   1.289       .  A
Zr2244     O3332   2.419       .  S
Zr2244     O3354   2.336       .  S
Zr2245     O3333   2.423       .  S
Zr2245     O3364   2.335       .  S
Zr2246     O2782   2.443   1_554  S
Zr2246     O3340   2.421       .  S
Zr2246     O2777   2.338   1_564  S
Zr2246     O3906   2.340   1_554  S
Zr2246     O3364   2.336       .  S
Zr2247     O2783   2.422       .  S
Zr2247     O3341   2.452       .  S
Zr2247     O2770   2.338   1_565  S
Zr2247     O3353   2.336   1_556  S
Zr2247     O3918   2.341       .  S
Zr2248     O2794   2.435   1_554  S
Zr2248     O2802   2.336   1_554  S
Zr2248     O2260   2.339       .  S
O2249     Zr3351   2.331   1_554  S
O2250     Zr3348   2.339       .  S
O2250     Zr3902   2.340       .  S
O2250     Zr2800   2.335       .  S
C2251      C2720   1.478       .  S
C2252      C2734   1.470       .  S
C2253      C2664   1.491       .  S
C2254      C2650   1.478       .  S
C2255      C2695   1.488       .  S
C2256      C2681   1.487       .  S
C2257      C2625   1.483       .  S
C2258      C2597   1.500       .  S
H2259      O2260   0.957       .  S
O2260     Zr3349   2.340       .  S
O2260     Zr3350   2.335       .  S
H2261      O2262   0.963       .  S
O2262     Zr3903   2.341       .  S
O2263     Zr2299   2.433       .  S
O2263      C2274   1.291       .  A
O2264     Zr2298   2.444       .  S
O2264      C2275   1.293       .  A
O2265     Zr2271   2.440       .  S
O2265      C2276   1.292       .  A
O2266      C2277   1.294       .  A
O2267     Zr2301   2.434       .  S
O2267      C2277   1.290       .  A
O2268     Zr2300   2.450       .  S
O2268      C2276   1.296       .  A
O2269     Zr2271   2.439       .  S
O2269      C2275   1.293       .  A
O2270     Zr2271   2.436       .  S
O2270      C2274   1.293       .  A
Zr2271     O2273   2.343       .  S
Zr2271     O2279   2.340       .  S
O2272     Zr2301   2.340       .  S
O2273     Zr2299   2.336       .  S
O2273     Zr2300   2.338       .  S
C2274      C2751   1.480       .  S
C2275      C2709   1.485       .  S
C2276      C2510   1.498       .  S
C2277      C2482   1.492       .  S
H2278      O2279   0.965       .  S
O2279     Zr2298   2.338       .  S
O2279     Zr2300   2.340       .  S
H2280      O2281   0.969       .  S
O2281     Zr2301   2.341       .  S
O2282     Zr2298   2.436       .  S
O2282      C2305   1.293       .  A
O2283     Zr2299   2.437       .  S
O2283      C2306   1.293       .  A
O2284     Zr2300   2.415       .  S
O2284      C2307   1.287       .  A
O2285     Zr2301   2.448       .  S
O2285      C2308   1.295       .  A
O2286     Zr2301   2.440       .  S
O2286      C2309   1.293       .  A
O2287     Zr2300   2.423       .  S
O2287      C2310   1.289       .  A
O2288     Zr2302   2.436       .  S
O2288      C2311   1.291       .  A
O2289      C2312   1.292       .  A
O2290     Zr2300   2.462       .  S
O2290      C2311   1.298       .  A
O2291     Zr2301   2.430       .  S
O2291      C2312   1.291       .  A
O2292     Zr2298   2.438       .  S
O2292      C2307   1.294       .  A
O2293     Zr2299   2.454       .  S
O2293      C2310   1.296       .  A
O2294      C2309   1.291       .  A
O2295      C2308   1.294       .  A
O2296     Zr2302   2.427       .  S
O2296      C2305   1.290       .  A
O2297     Zr2302   2.420       .  S
O2297      C2306   1.288       .  A
Zr2298     O2304   2.340       .  S
Zr2299     O2314   2.337       .  S
Zr2300     O2304   2.340       .  S
Zr2300     O2314   2.336       .  S
Zr2301     O2303   2.338       .  S
Zr2301     O2316   2.341       .  S
Zr2302     O2304   2.337       .  S
Zr2302     O2314   2.344       .  S
C2305      C2723   1.482       .  S
C2306      C2737   1.475       .  S
C2307      C2569   1.483       .  S
C2308      C2580   1.490       .  S
C2309      C2541   1.482       .  S
C2310      C2552   1.484       .  S
C2311      C2524   1.490       .  S
C2312      C2499   1.477       .  S
H2313      O2314   0.967       .  S
H2315      O2316   0.966       .  S
O2317     Zr2353   2.428       .  S
O2317      C2328   1.289       .  A
O2318     Zr2352   2.432       .  S
O2318      C2329   1.292       .  A
O2319     Zr2325   2.436       .  S
O2319      C2330   1.292       .  A
O2320     Zr3429   2.431   1_545  S
O2320      C2331   1.292       .  A
O2321     Zr2355   2.419       .  S
O2321      C2331   1.288       .  A
O2322     Zr2354   2.437       .  S
O2322      C2330   1.293       .  A
O2323     Zr2325   2.450       .  S
O2323      C2329   1.295       .  A
O2324     Zr2325   2.441       .  S
O2324      C2328   1.294       .  A
Zr2325     O3424   2.436       .  S
Zr2325     O3430   2.336       .  S
Zr2325     O2327   2.335       .  S
Zr2325     O3439   2.344       .  S
Zr2325     O2333   2.345       .  S
O2326     Zr3429   2.333   1_545  S
O2326     Zr3456   2.343   1_545  S
O2326     Zr2355   2.338       .  S
O2327     Zr2353   2.334       .  S
O2327     Zr2354   2.335       .  S
C2328      C3796   1.484       .  S
C2329      C3782   1.486       .  S
C2330      C2443   1.478       .  S
C2331      C2426   1.478       .  S
H2332      O2333   0.964       .  S
O2333     Zr2352   2.342       .  S
O2333     Zr2354   2.342       .  S
H2334      O2335   0.965       .  S
O2335     Zr3429   2.338   1_545  S
O2335     Zr3457   2.343   1_545  S
O2335     Zr2355   2.338       .  S
O2336     Zr2352   2.436       .  S
O2336      C2359   1.292       .  A
O2337     Zr2353   2.431       .  S
O2337      C2360   1.291       .  A
O2338     Zr2354   2.446       .  S
O2338      C2361   1.294       .  A
O2339     Zr2355   2.449       .  S
O2339      C2362   1.294       .  A
O2340     Zr2355   2.441       .  S
O2340      C2363   1.294       .  A
O2341     Zr2354   2.440       .  S
O2341      C2364   1.293       .  A
O2342     Zr2356   2.422       .  S
O2342      C2365   1.289       .  A
O2343     Zr3460   2.422   1_545  S
O2343      C2366   1.291       .  A
O2344     Zr2354   2.435       .  S
O2344      C2365   1.293       .  A
O2345     Zr2355   2.412       .  S
O2345      C2366   1.287       .  A
O2346     Zr2352   2.458       .  S
O2346      C2361   1.296       .  A
O2347     Zr2353   2.411       .  S
O2347      C2364   1.287       .  A
O2348     Zr3457   2.425   1_545  S
O2348      C2363   1.289       .  A
O2349     Zr3456   2.439   1_545  S
O2349      C2362   1.294       .  A
O2350     Zr2356   2.458       .  S
O2350      C2359   1.297       .  A
O2351     Zr2356   2.449       .  S
O2351      C2360   1.294       .  A
Zr2352     O3453   2.447       .  S
Zr2352     O3430   2.341       .  S
Zr2352     O2358   2.335       .  S
Zr2352     O3474   2.344       .  S
Zr2353     O3452   2.428       .  S
Zr2353     O3439   2.338       .  S
Zr2353     O3461   2.331       .  S
Zr2353     O2368   2.339       .  S
Zr2354     O2358   2.337       .  S
Zr2354     O2368   2.342       .  S
Zr2355     O2357   2.336       .  S
Zr2355     O2370   2.342       .  S
Zr2356     O3447   2.422       .  S
Zr2356     O3461   2.335       .  S
Zr2356     O2358   2.337       .  S
Zr2356     O3474   2.338       .  S
Zr2356     O2368   2.343       .  S
O2357     Zr3457   2.336   1_545  S
O2357     Zr3460   2.334   1_545  S
C2359      C3771   1.496       .  S
C2360      C3757   1.480       .  S
C2361      C2527   1.492       .  S
C2362      C2513   1.498       .  S
C2363      C2485   1.490       .  S
C2364      C2496   1.470       .  S
C2365      C2454   1.483       .  S
C2366      C2468   1.473       .  S
H2367      O2368   0.966       .  S
H2369      O2370   0.966       .  S
O2370     Zr3456   2.342   1_545  S
O2370     Zr3460   2.336   1_545  S
O2371     Zr2407   2.460       .  S
O2371      C2382   1.296       .  A
O2372     Zr2406   2.452       .  S
O2372      C2383   1.295       .  A
O2373     Zr2931   2.424   1_554  S
O2373      C2384   1.289       .  A
O2374     Zr2379   2.422       .  S
O2374      C2385   1.288       .  A
O2375     Zr2409   2.438       .  S
O2375      C2385   1.294       .  A
O2376     Zr2408   2.452       .  S
O2376      C2384   1.296       .  A
O2377     Zr2379   2.424       .  S
O2377      C2383   1.289       .  A
O2378     Zr2379   2.424       .  S
O2378      C2382   1.289       .  A
Zr2379     O2925   2.419       .  S
Zr2379     O2380   2.337       .  S
Zr2379     O2933   2.342       .  S
Zr2379     O2389   2.339       .  S
Zr2379     O2939   2.335       .  S
O2380     Zr2406   2.339       .  S
O2380     Zr2409   2.344       .  S
O2381     Zr2931   2.336   1_554  S
O2381     Zr2959   2.337   1_554  S
O2381     Zr2408   2.337       .  S
C2382      C3191   1.487       .  S
C2383      C3174   1.485       .  S
C2384      C2555   1.484       .  S
C2385      C2566   1.485       .  S
H2386      O2387   0.966       .  S
O2387     Zr2931   2.337   1_554  S
O2387     Zr2958   2.339   1_554  S
O2387     Zr2408   2.339       .  S
H2388      O2389   0.965       .  S
O2389     Zr2407   2.332       .  S
O2389     Zr2409   2.340       .  S
O2390     Zr2406   2.437       .  S
O2390      C2413   1.292       .  A
O2391     Zr2407   2.440       .  S
O2391      C2414   1.292       .  A
O2392     Zr2408   2.427       .  S
O2392      C2415   1.290       .  A
O2393     Zr2409   2.423       .  S
O2393      C2416   1.289       .  A
O2394     Zr2409   2.429       .  S
O2394      C2417   1.292       .  A
O2395     Zr2408   2.433       .  S
O2395      C2418   1.293       .  A
O2396     Zr2962   2.445   1_554  S
O2396      C2419   1.294       .  A
O2397     Zr2410   2.443       .  S
O2397      C2420   1.294       .  A
O2398     Zr2408   2.453       .  S
O2398      C2419   1.295       .  A
O2399     Zr2409   2.456       .  S
O2399      C2420   1.295       .  A
O2400     Zr2958   2.446   1_554  S
O2400      C2415   1.294       .  A
O2401     Zr2959   2.417   1_554  S
O2401      C2418   1.288       .  A
O2402     Zr2407   2.419       .  S
O2402      C2417   1.288       .  A
O2403     Zr2406   2.436       .  S
O2403      C2416   1.294       .  A
O2404     Zr2410   2.464       .  S
O2404      C2413   1.299       .  A
O2405     Zr2410   2.452       .  S
O2405      C2414   1.296       .  A
Zr2406     O2952   2.448       .  S
Zr2406     O2939   2.330       .  S
Zr2406     O2964   2.341       .  S
Zr2406     O2424   2.348       .  S
Zr2407     O2953   2.411       .  S
Zr2407     O2933   2.340       .  S
Zr2407     O2411   2.339       .  S
Zr2407     O2974   2.346       .  S
Zr2408     O2412   2.340       .  S
Zr2408     O2422   2.341       .  S
Zr2409     O2411   2.327       .  S
Zr2409     O2424   2.344       .  S
Zr2410     O2948   2.446       .  S
Zr2410     O2411   2.339       .  S
Zr2410     O2964   2.338       .  S
Zr2410     O2424   2.339       .  S
Zr2410     O2974   2.341       .  S
O2412     Zr2958   2.336   1_554  S
O2412     Zr2962   2.337   1_554  S
C2413      C3146   1.501       .  S
C2414      C3163   1.491       .  S
C2415      C2440   1.477       .  S
C2416      C2457   1.483       .  S
C2417      C2471   1.478       .  S
C2418      C2429   1.477       .  S
C2419      C2538   1.492       .  S
C2420      C2583   1.490       .  S
H2421      O2422   0.966       .  S
O2422     Zr2959   2.345   1_554  S
O2422     Zr2962   2.346   1_554  S
H2423      O2424   0.965       .  S
C2425      C2426   1.403       .  A
C2425      C2430   1.395       .  A
C2425      H2432   1.082       .  S
C2426      C2427   1.413       .  A
C2427      C2428   1.394       .  A
C2427      N2434   1.430       .  S
C2428      C2429   1.403       .  A
C2428      H2433   1.082       .  S
C2429      C2430   1.413       .  A
C2430      N2431   1.430       .  S
N2431      O2435   1.262       .  A
N2431      O2436   1.262       .  A
N2434      O2438   1.262       .  A
N2434      O2437   1.262       .  A
C2439      C2440   1.403       .  A
C2439      C2444   1.398       .  A
C2439      H2446   1.084       .  S
C2440      C2441   1.413       .  A
C2441      C2442   1.399       .  A
C2441      N2448   1.430       .  S
C2442      C2443   1.404       .  A
C2442      H2447   1.084       .  S
C2443      C2444   1.412       .  A
C2444      N2445   1.429       .  S
N2445      O2449   1.262       .  A
N2445      O2450   1.262       .  A
N2448      O2452   1.262       .  A
N2448      O2451   1.262       .  A
C2453      C2454   1.404       .  A
C2453      C2458   1.395       .  A
C2453      H2460   1.082       .  S
C2454      C2455   1.415       .  A
C2455      C2456   1.395       .  A
C2455      N2462   1.429       .  S
C2456      C2457   1.405       .  A
C2456      H2461   1.083       .  S
C2457      C2458   1.414       .  A
C2458      N2459   1.429       .  S
N2459      O2463   1.261       .  A
N2459      O2464   1.262       .  A
N2462      O2466   1.262       .  A
N2462      O2465   1.262       .  A
C2467      C2468   1.400       .  A
C2467      C2472   1.390       .  A
C2467      H2474   1.084       .  S
C2468      C2469   1.412       .  A
C2469      C2470   1.394       .  A
C2469      N2476   1.430       .  S
C2470      C2471   1.404       .  A
C2470      H2475   1.081       .  S
C2471      C2472   1.413       .  A
C2472      N2473   1.426       .  S
N2473      O2477   1.260       .  A
N2473      O2478   1.261       .  A
N2476      O2480   1.262       .  A
N2476      O2479   1.262       .  A
C2481      C2482   1.407       .  A
C2481      C2486   1.398       .  A
C2481      H2488   1.083       .  S
C2482      C2483   1.417       .  A
C2483      C2484   1.397       .  A
C2483      N2490   1.429       .  S
C2484      C2485   1.405       .  A
C2484      H2489   1.083       .  S
C2485      C2486   1.416       .  A
C2486      N2487   1.430       .  S
N2487      O2491   1.262       .  A
N2487      O2492   1.262       .  A
N2490      O2494   1.262       .  A
N2490      O2493   1.262       .  A
C2495      C2496   1.401       .  A
C2495      C2500   1.394       .  A
C2495      H2502   1.084       .  S
C2496      C2497   1.408       .  A
C2497      C2498   1.401       .  A
C2497      N2504   1.431       .  S
C2498      C2499   1.408       .  A
C2498      H2503   1.084       .  S
C2499      C2500   1.411       .  A
C2500      N2501   1.429       .  S
N2501      O2505   1.262       .  A
N2501      O2506   1.262       .  A
N2504      O2508   1.262       .  A
N2504      O2507   1.262       .  A
C2509      C2510   1.407       .  A
C2509      C2514   1.399       .  A
C2509      H2516   1.083       .  S
C2510      C2511   1.418       .  A
C2511      C2512   1.402       .  A
C2511      N2518   1.429       .  S
C2512      C2513   1.409       .  A
C2512      H2517   1.083       .  S
C2513      C2514   1.415       .  A
C2514      N2515   1.427       .  S
N2515      O2519   1.262       .  A
N2515      O2520   1.262       .  A
N2518      O2522   1.262       .  A
N2518      O2521   1.262       .  A
C2523      C2524   1.401       .  A
C2523      C2528   1.402       .  A
C2523      H2530   1.079       .  S
C2524      C2525   1.414       .  A
C2525      C2526   1.405       .  A
C2525      N2532   1.429       .  S
C2526      C2527   1.406       .  A
C2526      H2531   1.084       .  S
C2527      C2528   1.415       .  A
C2528      N2529   1.428       .  S
N2529      O2533   1.262       .  A
N2529      O2534   1.262       .  A
N2532      O2536   1.262       .  A
N2532      O2535   1.262       .  A
C2537      C2538   1.410       .  A
C2537      C2542   1.406       .  A
C2537      H2544   1.084       .  S
C2538      C2539   1.414       .  A
C2539      C2540   1.397       .  A
C2539      N2546   1.426       .  S
C2540      C2541   1.399       .  A
C2540      H2545   1.082       .  S
C2541      C2542   1.412       .  A
C2542      N2543   1.431       .  S
N2543      O2547   1.262       .  A
N2543      O2548   1.262       .  A
N2546      O2550   1.262       .  A
N2546      O2549   1.261       .  A
C2551      C2552   1.403       .  A
C2551      C2556   1.399       .  A
C2551      H2558   1.084       .  S
C2552      C2553   1.415       .  A
C2553      C2554   1.399       .  A
C2553      N2560   1.429       .  S
C2554      C2555   1.403       .  A
C2554      H2559   1.084       .  S
C2555      C2556   1.416       .  A
C2556      N2557   1.428       .  S
N2557      O2561   1.261       .  A
N2557      O2562   1.262       .  A
N2560      O2564   1.262       .  A
N2560      O2563   1.262       .  A
C2565      C2566   1.404       .  A
C2565      C2570   1.395       .  A
C2565      H2572   1.083       .  S
C2566      C2567   1.417       .  A
C2567      C2568   1.394       .  A
C2567      N2574   1.430       .  S
C2568      C2569   1.403       .  A
C2568      H2573   1.083       .  S
C2569      C2570   1.415       .  A
C2570      N2571   1.429       .  S
N2571      O2575   1.261       .  A
N2571      O2576   1.262       .  A
N2574      O2578   1.262       .  A
N2574      O2577   1.261       .  A
C2579      C2580   1.405       .  A
C2579      C2584   1.404       .  A
C2579      H2586   1.084       .  S
C2580      C2581   1.413       .  A
C2581      C2582   1.401       .  A
C2581      N2588   1.427       .  S
C2582      C2583   1.404       .  A
C2582      H2587   1.084       .  S
C2583      C2584   1.413       .  A
C2584      N2585   1.426       .  S
N2585      O2589   1.262       .  A
N2585      O2590   1.262       .  A
N2588      O2592   1.262       .  A
N2588      O2591   1.262       .  A
C2593      C3146   1.406       .  A
C2593      C2598   1.403       .  A
C2593      H2600   1.084       .  S
C2594      C2965   1.501       .  S
C2594      C3145   1.408       .  A
C2594      C2595   1.417   1_554  A
C2595      C2596   1.401       .  A
C2595      N2602   1.427       .  S
C2596      C2597   1.407   1_556  A
C2596      H2601   1.083       .  S
C2597      C3150   1.418       .  A
C2598      C3149   1.419       .  A
C2598      N2599   1.429       .  S
N2599      O2603   1.262       .  A
N2599      O2604   1.261       .  A
N2602      O3158   1.261       .  A
N2602      O2605   1.262   1_556  A
O2606      N3154   1.262       .  A
C2607      C2608   1.405   1_554  A
C2607      C2612   1.399       .  A
C2607      H2614   1.082       .  S
C2608      C3161   1.416       .  A
C2609      C3160   1.415       .  A
C2609      C2610   1.400       .  A
C2609      N2616   1.429       .  S
C2610      C3163   1.405       .  A
C2610      H2615   1.084       .  S
C2611      C2966   1.490       .  S
C2611      C3162   1.406       .  A
C2611      C2612   1.415   1_556  A
C2612      N2613   1.429       .  S
N2613      O2617   1.262   1_554  A
N2613      O2618   1.262       .  A
N2616      O2620   1.262       .  A
N2616      O2619   1.262       .  A
C2621      C2622   1.404   1_554  A
C2621      C2626   1.397       .  A
C2621      H2628   1.084       .  S
C2622      C2935   1.482       .  S
C2622      C3175   1.414       .  A
C2623      C3174   1.415       .  A
C2623      C2624   1.395       .  A
C2623      N2630   1.425       .  S
C2624      C3177   1.400       .  A
C2624      H2629   1.084       .  S
C2625      C3176   1.404   1_554  A
C2625      C2626   1.415       .  A
C2626      N2627   1.429       .  S
N2627      O2631   1.262       .  A
N2627      O3184   1.261       .  A
N2630      O2634   1.262       .  A
N2630      O3185   1.261       .  A
O2632      N3179   1.262       .  A
O2633      N3182   1.261       .  A
C2635      C2636   1.402       .  A
C2635      C2640   1.400       .  A
C2635      H2642   1.084       .  S
C2636      C3189   1.412   1_554  A
C2637      C3188   1.409       .  A
C2637      C3190   1.400       .  A
C2637      N2644   1.432       .  S
C2638      C3189   1.400       .  A
C2638      C2639   1.405   1_556  A
C2638      H2643   1.079       .  S
C2639      C2934   1.489       .  S
C2639      C2640   1.415       .  A
C2640      N2641   1.428       .  S
N2641      O3197   1.262       .  A
N2641      O2646   1.262       .  A
N2644      O3200   1.261       .  A
N2644      O2647   1.263       .  A
O2645      N3193   1.262       .  A
O2648      N3196   1.261       .  A
C2649      C2650   1.402   1_545  A
C2649      C2654   1.397       .  A
C2649      H2656   1.084       .  S
C2650      C3755   1.410       .  A
C2651      C3754   1.410       .  A
C2651      C2652   1.402       .  A
C2651      N2658   1.431       .  S
C2652      C3757   1.408       .  A
C2652      H2657   1.084       .  S
C2653      C3464   1.485       .  S
C2653      C3756   1.409       .  A
C2653      C2654   1.414   1_565  A
C2654      N2655   1.429       .  S
N2655      O2659   1.262       .  A
N2655      O2660   1.262       .  A
N2658      O2662   1.262       .  A
N2658      O2661   1.262       .  A
C2663      C3768   1.406       .  A
C2663      C2668   1.401       .  A
C2663      H2670   1.082       .  S
C2664      C3767   1.404   1_565  A
C2664      C2665   1.416       .  A
C2665      C2666   1.405       .  A
C2665      N2672   1.429       .  S
C2666      C2667   1.406   1_565  A
C2666      H2671   1.084       .  S
C2667      C3463   1.491       .  S
C2667      C3772   1.415       .  A
C2668      C3771   1.417       .  A
C2668      N2669   1.430       .  S
N2669      O2673   1.262       .  A
N2669      O3778   1.262       .  A
N2672      O2676   1.262       .  A
N2672      O3779   1.262       .  A
O2674      N3773   1.262       .  A
O2675      N3776   1.262       .  A
C2677      C3782   1.407       .  A
C2677      C2682   1.402       .  A
C2677      H2684   1.084       .  S
C2678      C3433   1.489       .  S
C2678      C3781   1.408       .  A
C2678      C2679   1.412   1_565  A
C2679      C2680   1.397       .  A
C2679      N2686   1.427       .  S
C2680      C2681   1.404   1_545  A
C2680      H2685   1.084       .  S
C2681      C3786   1.415       .  A
C2682      C3785   1.415       .  A
C2682      N2683   1.430       .  S
N2683      O2687   1.262       .  A
N2683      O2688   1.262       .  A
N2686      O2690   1.261       .  A
N2686      O2689   1.262       .  A
C2691      C2692   1.403   1_545  A
C2691      C2696   1.398       .  A
C2691      H2698   1.084       .  S
C2692      C3432   1.485       .  S
C2692      C3797   1.413       .  A
C2693      C3796   1.415       .  A
C2693      C2694   1.398       .  A
C2693      N2700   1.429       .  S
C2694      C3799   1.404       .  A
C2694      H2699   1.084       .  S
C2695      C3798   1.406       .  A
C2695      C2696   1.416   1_565  A
C2696      N2697   1.428       .  S
N2697      O3805   1.262       .  A
N2697      O2702   1.261       .  A
N2700      O3808   1.262       .  A
N2700      O2703   1.262       .  A
O2701      N3801   1.262       .  A
O2704      N3804   1.262       .  A
C2705      C2706   1.404       .  A
C2705      C2710   1.400       .  A
C2705      H2712   1.084       .  S
C2707      C2708   1.400       .  A
C2707      N2714   1.430       .  S
C2708      H2713   1.084       .  S
C2709      C2710   1.414       .  A
C2710      N2711   1.429       .  S
N2711      O2715   1.262       .  A
N2711      O2716   1.262       .  A
N2714      O2718   1.262       .  A
N2714      O2717   1.262       .  A
C2719      C2720   1.403       .  A
C2719      C2724   1.396       .  A
C2719      H2726   1.084       .  S
C2721      C2722   1.396       .  A
C2721      N2728   1.427       .  S
C2722      H2727   1.080       .  S
C2723      C2724   1.415       .  A
C2724      N2725   1.429       .  S
N2725      O2729   1.261       .  A
N2725      O2730   1.262       .  A
N2728      O2732   1.261       .  A
N2728      O2731   1.263       .  A
C2733      C2738   1.394       .  A
C2733      H2740   1.084       .  S
C2734      C2735   1.411       .  A
C2735      C2736   1.397       .  A
C2735      N2742   1.431       .  S
C2736      C2737   1.405       .  A
C2736      H2741   1.084       .  S
C2738      N2739   1.430       .  S
N2739      O2743   1.262       .  A
N2739      O2744   1.262       .  A
N2742      O2746   1.262       .  A
N2742      O2745   1.262       .  A
C2747      C2752   1.397       .  A
C2747      H2754   1.084       .  S
C2748      C2749   1.415       .  A
C2749      C2750   1.398       .  A
C2749      N2756   1.431       .  S
C2750      C2751   1.404       .  A
C2750      H2755   1.083       .  S
C2752      N2753   1.429       .  S
N2753      O2757   1.262       .  A
N2753      O2758   1.262       .  A
N2756      O2760   1.262       .  A
N2756      O2759   1.262       .  A
O2761     Zr2797   2.430   1_545  S
O2761      C2772   1.290       .  A
O2762     Zr2796   2.427   1_545  S
O2762      C2773   1.289       .  A
O2763     Zr2769   2.426       .  S
O2763      C2774   1.290       .  A
O2764      C2775   1.291       .  A
O2765     Zr2799   2.451   1_545  S
O2765      C2775   1.295       .  A
O2766     Zr2798   2.434   1_545  S
O2766      C2774   1.292       .  A
O2767      C2773   1.296       .  A
O2768     Zr2769   2.446       .  S
O2768      C2772   1.294       .  A
Zr2769     O2771   2.341       .  S
O2771     Zr2797   2.343   1_545  S
O2771     Zr2798   2.344   1_545  S
C2772      C3300   1.477       .  S
C2773      C3258   1.492       .  S
C2774      C3188   1.474       .  S
C2775      C3160   1.488       .  S
H2776      O2777   0.984       .  S
O2777     Zr2796   2.339   1_545  S
H2778      O2779   0.954       .  S
O2779     Zr2799   2.335   1_545  S
O2780     Zr3900   2.407       .  S
O2780      C2803   1.287       .  A
O2781     Zr3901   2.422       .  S
O2781      C2804   1.289       .  A
O2782      C2805   1.293       .  A
O2783      C2806   1.290       .  A
O2784     Zr2799   2.433       .  S
O2784      C2807   1.291       .  A
O2785     Zr2798   2.426   1_545  S
O2785      C2808   1.291       .  A
O2786     Zr2800   2.448       .  S
O2786      C2809   1.295       .  A
O2787      C2810   1.293       .  A
O2788     Zr3902   2.417       .  S
O2788      C2809   1.287       .  A
O2789     Zr3903   2.460       .  S
O2789      C2810   1.298       .  A
O2790     Zr2796   2.448       .  S
O2790      C2805   1.295       .  A
O2791     Zr2797   2.444   1_545  S
O2791      C2808   1.293       .  A
O2792      C2807   1.294       .  A
O2793      C2806   1.295       .  A
O2794      C2803   1.292       .  A
O2795     Zr2800   2.415       .  S
O2795      C2804   1.288       .  A
Zr2796     O3884   2.421       .  S
Zr2796     O3906   2.340       .  S
Zr2797     O3885   2.425       .  S
Zr2797     O3916   2.341       .  S
Zr2798     O3892   2.435       .  S
Zr2798     O3354   2.336       .  S
Zr2798     O3916   2.338       .  S
Zr2799     O3893   2.446       .  S
Zr2799     O3905   2.338       .  S
Zr2799     O3366   2.343       .  S
Zr2800     O2812   2.337       .  S
O2801     Zr3903   2.335       .  S
O2802     Zr3900   2.339       .  S
O2802     Zr3350   2.341   1_556  S
C2803      C3272   1.470       .  S
C2804      C3286   1.458       .  S
C2805      C3216   1.491       .  S
C2806      C3202   1.482       .  S
C2807      C3247   1.488       .  S
C2808      C3233   1.482       .  S
C2809      C3177   1.481       .  S
C2810      C3149   1.503       .  S
H2811      O2812   0.956       .  S
O2812     Zr3901   2.341       .  S
O2812     Zr3902   2.335       .  S
H2813      O2814   0.968       .  S
O2814     Zr3351   2.339       .  S
O2815     Zr2851   2.441       .  S
O2815      C2826   1.293       .  A
O2816     Zr2850   2.443       .  S
O2816      C2827   1.293       .  A
O2817     Zr2823   2.445       .  S
O2817      C2828   1.293       .  A
O2818      C2829   1.296       .  A
O2819     Zr2853   2.436       .  S
O2819      C2829   1.291       .  A
O2820     Zr2852   2.454       .  S
O2820      C2828   1.296       .  A
O2821     Zr2823   2.447       .  S
O2821      C2827   1.295       .  A
O2822     Zr2823   2.443       .  S
O2822      C2826   1.294       .  A
Zr2823     O2825   2.339       .  S
Zr2823     O2831   2.349       .  S
O2824     Zr2853   2.340       .  S
O2825     Zr2851   2.332       .  S
O2825     Zr2852   2.335       .  S
C2826      C3303   1.480       .  S
C2827      C3261   1.496       .  S
C2828      C3062   1.494       .  S
C2829      C3034   1.498       .  S
H2830      O2831   0.966       .  S
O2831     Zr2850   2.344       .  S
O2831     Zr2852   2.341       .  S
H2832      O2833   0.969       .  S
O2833     Zr2853   2.347       .  S
O2834     Zr2850   2.441       .  S
O2834      C2857   1.294       .  A
O2835     Zr2851   2.436       .  S
O2835      C2858   1.292       .  A
O2836     Zr2852   2.426       .  S
O2836      C2859   1.289       .  A
O2837     Zr2853   2.458       .  S
O2837      C2860   1.298       .  A
O2838     Zr2853   2.446       .  S
O2838      C2861   1.294       .  A
O2839     Zr2852   2.412       .  S
O2839      C2862   1.287       .  A
O2840     Zr2854   2.444       .  S
O2840      C2863   1.293       .  A
O2841      C2864   1.292       .  A
O2842     Zr2852   2.449       .  S
O2842      C2863   1.295       .  A
O2843     Zr2853   2.442       .  S
O2843      C2864   1.293       .  A
O2844     Zr2850   2.442       .  S
O2844      C2859   1.294       .  A
O2845     Zr2851   2.453       .  S
O2845      C2862   1.296       .  A
O2846      C2861   1.293       .  A
O2847      C2860   1.292       .  A
O2848     Zr2854   2.423       .  S
O2848      C2857   1.289       .  A
O2849     Zr2854   2.424       .  S
O2849      C2858   1.289       .  A
Zr2850     O2856   2.336       .  S
Zr2851     O2866   2.338       .  S
Zr2852     O2856   2.338       .  S
Zr2852     O2866   2.344       .  S
Zr2853     O2855   2.343       .  S
Zr2853     O2868   2.338       .  S
Zr2854     O2856   2.343       .  S
Zr2854     O2866   2.345       .  S
C2857      C3275   1.478       .  S
C2858      C3289   1.467       .  S
C2859      C3121   1.484       .  S
C2860      C3132   1.496       .  S
C2861      C3093   1.481       .  S
C2862      C3104   1.481       .  S
C2863      C3076   1.497       .  S
C2864      C3051   1.477       .  S
H2865      O2866   0.967       .  S
H2867      O2868   0.966       .  S
O2869     Zr2905   2.425       .  S
O2869      C2880   1.289       .  A
O2870     Zr2904   2.441       .  S
O2870      C2881   1.294       .  A
O2871     Zr2877   2.423       .  S
O2871      C2882   1.289       .  A
O2872     Zr3981   2.437   1_545  S
O2872      C2883   1.294       .  A
O2873     Zr2907   2.404       .  S
O2873      C2883   1.285       .  A
O2874     Zr2906   2.457       .  S
O2874      C2882   1.297       .  A
O2875     Zr2877   2.455       .  S
O2875      C2881   1.295       .  A
O2876     Zr2877   2.447       .  S
O2876      C2880   1.295       .  A
Zr2877     O3976   2.419       .  S
Zr2877     O3982   2.335       .  S
Zr2877     O2879   2.341       .  S
Zr2877     O3991   2.337       .  S
Zr2877     O2885   2.338       .  S
O2878     Zr3981   2.337   1_545  S
O2878     Zr4008   2.340       .  S
O2878     Zr2907   2.338       .  S
O2879     Zr2905   2.342       .  S
O2879     Zr2906   2.335       .  S
C2880      C4348   1.486       .  S
C2881      C4334   1.495       .  S
C2882      C2995   1.495       .  S
C2883      C2978   1.479       .  S
H2884      O2885   0.964       .  S
O2885     Zr2904   2.338       .  S
O2885     Zr2906   2.339       .  S
H2886      O2887   0.965       .  S
O2887     Zr3981   2.339   1_545  S
O2887     Zr4009   2.338   1_545  S
O2887     Zr2907   2.339       .  S
O2888     Zr2904   2.441       .  S
O2888      C2911   1.293       .  A
O2889     Zr2905   2.440       .  S
O2889      C2912   1.292       .  A
O2890     Zr2906   2.434       .  S
O2890      C2913   1.291       .  A
O2891     Zr2907   2.451       .  S
O2891      C2914   1.294       .  A
O2892     Zr2907   2.449       .  S
O2892      C2915   1.295       .  A
O2893     Zr2906   2.436       .  S
O2893      C2916   1.292       .  A
O2894     Zr2908   2.421       .  S
O2894      C2917   1.289       .  A
O2895     Zr4012   2.428       .  S
O2895      C2918   1.291       .  A
O2896     Zr2906   2.446       .  S
O2896      C2917   1.296       .  A
O2897     Zr2907   2.410       .  S
O2897      C2918   1.287       .  A
O2898     Zr2904   2.458       .  S
O2898      C2913   1.298       .  A
O2899     Zr2905   2.425       .  S
O2899      C2916   1.289       .  A
O2900     Zr4009   2.430   1_545  S
O2900      C2915   1.290       .  A
O2901     Zr4008   2.447       .  S
O2901      C2914   1.295       .  A
O2902     Zr2908   2.457       .  S
O2902      C2911   1.296       .  A
O2903     Zr2908   2.450       .  S
O2903      C2912   1.294       .  A
Zr2904     O4005   2.442       .  S
Zr2904     O3982   2.341       .  S
Zr2904     O2910   2.338       .  S
Zr2904     O4026   2.344       .  S
Zr2905     O4004   2.429       .  S
Zr2905     O3991   2.339       .  S
Zr2905     O4013   2.336       .  S
Zr2905     O2920   2.332       .  S
Zr2906     O2910   2.344       .  S
Zr2906     O2920   2.341       .  S
Zr2907     O2909   2.334       .  S
Zr2907     O2922   2.337       .  S
Zr2908     O3999   2.418       .  S
Zr2908     O4013   2.338       .  S
Zr2908     O2910   2.342       .  S
Zr2908     O4026   2.340       .  S
Zr2908     O2920   2.340       .  S
O2909     Zr4009   2.337   1_545  S
O2909     Zr4012   2.336       .  S
C2911      C4323   1.491       .  S
C2912      C4309   1.484       .  S
C2913      C3079   1.497       .  S
C2914      C3065   1.493       .  S
C2915      C3037   1.496       .  S
C2916      C3048   1.470       .  S
C2917      C3006   1.484       .  S
C2918      C3020   1.470       .  S
H2919      O2920   0.966       .  S
H2921      O2922   0.966       .  S
O2922     Zr4008   2.342       .  S
O2922     Zr4012   2.338       .  S
O2923     Zr2959   2.449   1_554  S
O2923      C2934   1.294       .  A
O2924     Zr2958   2.440       .  S
O2924      C2935   1.294       .  A
O2925      C2936   1.288       .  A
O2926     Zr2931   2.422       .  S
O2926      C2937   1.289       .  A
O2927     Zr2961   2.444       .  S
O2927      C2937   1.295       .  A
O2928     Zr2960   2.447       .  S
O2928      C2936   1.295       .  A
O2929     Zr2931   2.424       .  S
O2929      C2935   1.289       .  A
O2930     Zr2931   2.436   1_554  S
O2930      C2934   1.291       .  A
Zr2931     O2932   2.342       .  S
Zr2931     O2941   2.336       .  S
O2932     Zr2958   2.342       .  S
O2932     Zr2961   2.340       .  S
O2933     Zr2960   2.345       .  S
C2936      C3107   1.480       .  S
C2937      C3118   1.484       .  S
H2938      O2939   0.966       .  S
O2939     Zr2960   2.339       .  S
H2940      O2941   0.964       .  S
O2941     Zr2959   2.335       .  S
O2941     Zr2961   2.343       .  S
O2942     Zr2958   2.447   1_554  S
O2942      C2965   1.293       .  A
O2943     Zr2959   2.438       .  S
O2943      C2966   1.292       .  A
O2944     Zr2960   2.436       .  S
O2944      C2967   1.291       .  A
O2945     Zr2961   2.432       .  S
O2945      C2968   1.291       .  A
O2946     Zr2961   2.428       .  S
O2946      C2969   1.291       .  A
O2947     Zr2960   2.428       .  S
O2947      C2970   1.292       .  A
O2948      C2971   1.294       .  A
O2949     Zr2962   2.453       .  S
O2949      C2972   1.296       .  A
O2950     Zr2960   2.455       .  S
O2950      C2971   1.295       .  A
O2951     Zr2961   2.449       .  S
O2951      C2972   1.294       .  A
O2952      C2967   1.295       .  A
O2953      C2970   1.286       .  A
O2954     Zr2959   2.426       .  S
O2954      C2969   1.290       .  A
O2955     Zr2958   2.442       .  S
O2955      C2968   1.294       .  A
O2956     Zr2962   2.452   1_554  S
O2956      C2965   1.296       .  A
O2957     Zr2962   2.442       .  S
O2957      C2966   1.294       .  A
Zr2958     O2976   2.341       .  S
Zr2959     O2963   2.342       .  S
Zr2960     O2964   2.337       .  S
Zr2960     O2974   2.338       .  S
Zr2961     O2963   2.337       .  S
Zr2961     O2976   2.344       .  S
Zr2962     O2963   2.342       .  S
Zr2962     O2976   2.336       .  S
C2967      C2992   1.496       .  S
C2968      C3009   1.487       .  S
C2969      C3023   1.475       .  S
C2970      C2981   1.479       .  S
C2971      C3090   1.487       .  S
C2972      C3135   1.498       .  S
H2973      O2974   0.966       .  S
H2975      O2976   0.965       .  S
C2977      C2978   1.403       .  A
C2977      C2982   1.392       .  A
C2977      H2984   1.084       .  S
C2978      C2979   1.417       .  A
C2979      C2980   1.392       .  A
C2979      N2986   1.430       .  S
C2980      C2981   1.403       .  A
C2980      H2985   1.083       .  S
C2981      C2982   1.415       .  A
C2982      N2983   1.429       .  S
N2983      O2987   1.262       .  A
N2983      O2988   1.262       .  A
N2986      O2990   1.262       .  A
N2986      O2989   1.262       .  A
C2991      C2992   1.407       .  A
C2991      C2996   1.401       .  A
C2991      H2998   1.084       .  S
C2992      C2993   1.417       .  A
C2993      C2994   1.399       .  A
C2993      N3000   1.428       .  S
C2994      C2995   1.405       .  A
C2994      H2999   1.083       .  S
C2995      C2996   1.419       .  A
C2996      N2997   1.429       .  S
N2997      O3001   1.262       .  A
N2997      O3002   1.262       .  A
N3000      O3004   1.262       .  A
N3000      O3003   1.262       .  A
C3005      C3006   1.402       .  A
C3005      C3010   1.394       .  A
C3005      H3012   1.082       .  S
C3006      C3007   1.416       .  A
C3007      C3008   1.399       .  A
C3007      N3014   1.430       .  S
C3008      C3009   1.405       .  A
C3008      H3013   1.081       .  S
C3009      C3010   1.414       .  A
C3010      N3011   1.426       .  S
N3011      O3015   1.261       .  A
N3011      O3016   1.262       .  A
N3014      O3018   1.262       .  A
N3014      O3017   1.262       .  A
C3019      C3020   1.400       .  A
C3019      C3024   1.392       .  A
C3019      H3026   1.084       .  S
C3020      C3021   1.412       .  A
C3021      C3022   1.394       .  A
C3021      N3028   1.430       .  S
C3022      C3023   1.401       .  A
C3022      H3027   1.079       .  S
C3023      C3024   1.410       .  A
C3024      N3025   1.425       .  S
N3025      O3029   1.261       .  A
N3025      O3030   1.262       .  A
N3028      O3032   1.262       .  A
N3028      O3031   1.262       .  A
C3033      C3034   1.407       .  A
C3033      C3038   1.401       .  A
C3033      H3040   1.083       .  S
C3034      C3035   1.418       .  A
C3035      C3036   1.400       .  A
C3035      N3042   1.428       .  S
C3036      C3037   1.405       .  A
C3036      H3041   1.083       .  S
C3037      C3038   1.417       .  A
C3038      N3039   1.428       .  S
N3039      O3043   1.261       .  A
N3039      O3044   1.262       .  A
N3042      O3046   1.262       .  A
N3042      O3045   1.262       .  A
C3047      C3048   1.400       .  A
C3047      C3052   1.398       .  A
C3047      H3054   1.084       .  S
C3048      C3049   1.407       .  A
C3049      C3050   1.401       .  A
C3049      N3056   1.430       .  S
C3050      C3051   1.406       .  A
C3050      H3055   1.084       .  S
C3051      C3052   1.412       .  A
C3052      N3053   1.429       .  S
N3053      O3057   1.261       .  A
N3053      O3058   1.262       .  A
N3056      O3060   1.261       .  A
N3056      O3059   1.263       .  A
C3061      C3062   1.406       .  A
C3061      C3066   1.402       .  A
C3061      H3068   1.084       .  S
C3062      C3063   1.417       .  A
C3063      C3064   1.405       .  A
C3063      N3070   1.430       .  S
C3064      C3065   1.407       .  A
C3064      H3069   1.084       .  S
C3065      C3066   1.414       .  A
C3066      N3067   1.429       .  S
N3067      O3071   1.261       .  A
N3067      O3072   1.262       .  A
N3070      O3074   1.262       .  A
N3070      O3073   1.262       .  A
C3075      C3076   1.406       .  A
C3075      C3080   1.401       .  A
C3075      H3082   1.083       .  S
C3076      C3077   1.416       .  A
C3077      C3078   1.401       .  A
C3077      N3084   1.429       .  S
C3078      C3079   1.406       .  A
C3078      H3083   1.083       .  S
C3079      C3080   1.418       .  A
C3080      N3081   1.429       .  S
N3081      O3085   1.261       .  A
N3081      O3086   1.262       .  A
N3084      O3088   1.262       .  A
N3084      O3087   1.260       .  A
C3089      C3090   1.407       .  A
C3089      C3094   1.404       .  A
C3089      H3096   1.084       .  S
C3090      C3091   1.414       .  A
C3091      C3092   1.402       .  A
C3091      N3098   1.429       .  S
C3092      C3093   1.402       .  A
C3092      H3097   1.083       .  S
C3093      C3094   1.411       .  A
C3094      N3095   1.430       .  S
N3095      O3099   1.262       .  A
N3095      O3100   1.262       .  A
N3098      O3102   1.262       .  A
N3098      O3101   1.262       .  A
C3103      C3104   1.402       .  A
C3103      C3108   1.397       .  A
C3103      H3110   1.084       .  S
C3104      C3105   1.417       .  A
C3105      C3106   1.396       .  A
C3105      N3112   1.429       .  S
C3106      C3107   1.402       .  A
C3106      H3111   1.084       .  S
C3107      C3108   1.416       .  A
C3108      N3109   1.429       .  S
N3109      O3113   1.261       .  A
N3109      O3114   1.262       .  A
N3112      O3116   1.262       .  A
N3112      O3115   1.262       .  A
C3117      C3118   1.403       .  A
C3117      C3122   1.397       .  A
C3117      H3124   1.080       .  S
C3118      C3119   1.415       .  A
C3119      C3120   1.397       .  A
C3119      N3126   1.430       .  S
C3120      C3121   1.403       .  A
C3120      H3125   1.080       .  S
C3121      C3122   1.413       .  A
C3122      N3123   1.428       .  S
N3123      O3127   1.262       .  A
N3123      O3128   1.262       .  A
N3126      O3130   1.262       .  A
N3126      O3129   1.262       .  A
C3131      C3132   1.403       .  A
C3131      C3136   1.400       .  A
C3131      H3138   1.083       .  S
C3132      C3133   1.417       .  A
C3133      C3134   1.404       .  A
C3133      N3140   1.427       .  S
C3134      C3135   1.406       .  A
C3134      H3139   1.084       .  S
C3135      C3136   1.416       .  A
C3136      N3137   1.426       .  S
N3137      O3141   1.262       .  A
N3137      O3142   1.261       .  A
N3140      O3144   1.261       .  A
N3140      O3143   1.261       .  A
C3145      C3150   1.404       .  A
C3145      H3152   1.084       .  S
C3146      C3147   1.419       .  A
C3147      C3148   1.404       .  A
C3147      N3154   1.429       .  S
C3148      C3149   1.408       .  A
C3148      H3153   1.083       .  S
C3150      N3151   1.429       .  S
N3151      O3155   1.262       .  A
N3151      O3156   1.261   1_554  A
N3154      O3157   1.262       .  A
C3159      C3160   1.404       .  A
C3159      C3164   1.402       .  A
C3159      H3166   1.084       .  S
C3161      C3162   1.401       .  A
C3161      N3168   1.429       .  S
C3162      H3167   1.084       .  S
C3163      C3164   1.416       .  A
C3164      N3165   1.427       .  S
N3165      O3169   1.262       .  A
N3165      O3170   1.261       .  A
N3168      O3172   1.262       .  A
N3168      O3171   1.262       .  A
C3173      C3174   1.404       .  A
C3173      C3178   1.400       .  A
C3173      H3180   1.084       .  S
C3175      C3176   1.397       .  A
C3175      N3182   1.429       .  S
C3176      H3181   1.084       .  S
C3177      C3178   1.416       .  A
C3178      N3179   1.430       .  S
N3179      O3183   1.262       .  A
N3182      O3186   1.262       .  A
C3187      C3188   1.401       .  A
C3187      C3192   1.399       .  A
C3187      H3194   1.084       .  S
C3189      N3196   1.430       .  S
C3190      C3191   1.404       .  A
C3190      H3195   1.076       .  S
C3191      C3192   1.416       .  A
C3192      N3193   1.428       .  S
N3193      O3198   1.262       .  A
N3196      O3199   1.263       .  A
C3201      C3202   1.405   1_545  A
C3201      C3206   1.399       .  A
C3201      H3208   1.084       .  S
C3202      C4307   1.410       .  A
C3203      C4306   1.410       .  A
C3203      C3204   1.404       .  A
C3203      N3210   1.431       .  S
C3204      C4309   1.409       .  A
C3204      H3209   1.084       .  S
C3205      C4016   1.485       .  S
C3205      C4308   1.409       .  A
C3205      C3206   1.412   1_565  A
C3206      N3207   1.429       .  S
N3207      O3211   1.262       .  A
N3207      O3212   1.262       .  A
N3210      O3214   1.262       .  A
N3210      O3213   1.262       .  A
C3215      C4320   1.403       .  A
C3215      C3220   1.400       .  A
C3215      H3222   1.084       .  S
C3216      C4319   1.406   1_565  A
C3216      C3217   1.415       .  A
C3217      C3218   1.401       .  A
C3217      N3224   1.428       .  S
C3218      C3219   1.406   1_565  A
C3218      H3223   1.084       .  S
C3219      C4015   1.491       .  S
C3219      C4324   1.415       .  A
C3220      C4323   1.415       .  A
C3220      N3221   1.428       .  S
N3221      O3225   1.262       .  A
N3221      O4330   1.262       .  A
N3224      O3228   1.261       .  A
N3224      O4331   1.262       .  A
O3226      N4325   1.262       .  A
O3227      N4328   1.262       .  A
C3229      C4334   1.409       .  A
C3229      C3234   1.404       .  A
C3229      H3236   1.084       .  S
C3230      C3985   1.485       .  S
C3230      C4333   1.407   1_545  A
C3230      C3231   1.413       .  A
C3231      C3232   1.398       .  A
C3231      N3238   1.429       .  S
C3232      C3233   1.405       .  A
C3232      H3237   1.084       .  S
C3233      C4338   1.411   1_545  A
C3234      C4337   1.415       .  A
C3234      N3235   1.429       .  S
N3235      O3239   1.262       .  A
N3235      O3240   1.262       .  A
N3238      O3242   1.262       .  A
N3238      O3241   1.262       .  A
C3243      C3244   1.406   1_545  A
C3243      C3248   1.399       .  A
C3243      H3250   1.084       .  S
C3244      C3984   1.489       .  S
C3244      C4349   1.416       .  A
C3245      C4348   1.415       .  A
C3245      C3246   1.397       .  A
C3245      N3252   1.430       .  S
C3246      C4351   1.405       .  A
C3246      H3251   1.084       .  S
C3247      C4350   1.406       .  A
C3247      C3248   1.415   1_565  A
C3248      N3249   1.429       .  S
N3249      O4357   1.262   1_545  A
N3249      O3254   1.262       .  A
N3252      O4360   1.261       .  A
N3252      O3255   1.262       .  A
O3253      N4353   1.262       .  A
O3256      N4356   1.261       .  A
C3257      C3258   1.403       .  A
C3257      C3262   1.398       .  A
C3257      H3264   1.084       .  S
C3259      C3260   1.400       .  A
C3259      N3266   1.429       .  S
C3260      H3265   1.084       .  S
C3261      C3262   1.416       .  A
C3262      N3263   1.425       .  S
N3263      O3267   1.260       .  A
N3263      O3268   1.261       .  A
N3266      O3270   1.261       .  A
N3266      O3269   1.262   1_455  A
C3271      C3272   1.400       .  A
C3271      C3276   1.394       .  A
C3271      H3278   1.084       .  S
C3273      C3274   1.396       .  A
C3273      N3280   1.428       .  S
C3274      H3279   1.080       .  S
C3275      C3276   1.412       .  A
C3276      N3277   1.424       .  S
N3277      O3281   1.261       .  A
N3277      O3282   1.262       .  A
N3280      O3284   1.261       .  A
N3280      O3283   1.263       .  A
C3285      C3290   1.395       .  A
C3285      H3292   1.084       .  S
C3286      C3287   1.407       .  A
C3287      C3288   1.396       .  A
C3287      N3294   1.432       .  S
C3288      C3289   1.404       .  A
C3288      H3293   1.084       .  S
C3290      N3291   1.429       .  S
N3291      O3295   1.262       .  A
N3291      O3296   1.262       .  A
N3294      O3298   1.262       .  A
N3294      O3297   1.263       .  A
C3299      C3304   1.397       .  A
C3299      H3306   1.084       .  S
C3300      C3301   1.413       .  A
C3301      C3302   1.401       .  A
C3301      N3308   1.430       .  S
C3302      C3303   1.404       .  A
C3302      H3307   1.084       .  S
C3304      N3305   1.429       .  S
N3305      O3309   1.262       .  A
N3305      O3310   1.262       .  A
N3308      O3312   1.262       .  A
N3308      O3311   1.262       .  A
O3313     Zr3349   2.430       .  S
O3313      C3324   1.290       .  A
O3314     Zr3348   2.430       .  S
O3314      C3325   1.290       .  A
O3315     Zr3321   2.434       .  S
O3315      C3326   1.292       .  A
O3316      C3327   1.291   1_554  A
O3317     Zr3351   2.446       .  S
O3317      C3327   1.295       .  A
O3318     Zr3350   2.431       .  S
O3318      C3326   1.291       .  A
O3319     Zr3873   2.443       .  S
O3319      C3325   1.295       .  A
O3320     Zr3321   2.435       .  S
O3320      C3324   1.293       .  A
Zr3321     O3871   2.452   1_554  S
Zr3321     O3323   2.337       .  S
Zr3321     O3881   2.339   1_554  S
O3322     Zr3903   2.346       .  S
O3323     Zr3349   2.338       .  S
O3323     Zr3350   2.331       .  S
C3324      C3852   1.481       .  S
C3325      C3810   1.485       .  S
C3326      C3740   1.476       .  S
C3327      C3712   1.494       .  S
H3328      O3329   0.959       .  S
O3329     Zr3873   2.338       .  S
O3329     Zr3348   2.336       .  S
O3329     Zr3902   2.340       .  S
H3330      O3331   0.958       .  S
O3331     Zr3351   2.340   1_554  S
O3332      C3355   1.289       .  A
O3333      C3356   1.289       .  A
O3334     Zr3902   2.453       .  S
O3334      C3357   1.294       .  A
O3335     Zr3903   2.428       .  S
O3335      C3358   1.291       .  A
O3336     Zr3351   2.429   1_554  S
O3336      C3359   1.290       .  A
O3337     Zr3350   2.442       .  S
O3337      C3360   1.294       .  A
O3338     Zr3352   2.446   1_554  S
O3338      C3361   1.295       .  A
O3339      C3362   1.293       .  A
O3340      C3361   1.288       .  A
O3341      C3362   1.296   1_556  A
O3342     Zr3348   2.448       .  S
O3342      C3357   1.295       .  A
O3343     Zr3349   2.432       .  S
O3343      C3360   1.290       .  A
O3344      C3359   1.294       .  A
O3345      C3358   1.292       .  A
O3346     Zr3904   2.416       .  S
O3346      C3355   1.288       .  A
O3347     Zr3352   2.423   1_554  S
O3347      C3356   1.289       .  A
Zr3350     O3886   2.432   1_554  S
Zr3350     O3881   2.347   1_554  S
Zr3351     O3887   2.425       .  S
Zr3351     O3874   2.340       .  S
Zr3352     O3898   2.413       .  S
Zr3352     O3906   2.338       .  S
Zr3352     O3364   2.327   1_556  S
O3354     Zr3904   2.337       .  S
C3355      C3824   1.464       .  S
C3356      C3838   1.468       .  S
C3357      C3768   1.498       .  S
C3358      C3754   1.475       .  S
C3359      C3799   1.483       .  S
C3360      C3785   1.485       .  S
C3361      C3729   1.484       .  S
C3362      C3701   1.501       .  S
H3363      O3364   0.973       .  S
H3365      O3366   0.959       .  S
O3367     Zr3403   2.426       .  S
O3367      C3378   1.290       .  A
O3368     Zr3402   2.438       .  S
O3368      C3379   1.292       .  A
O3369     Zr3375   2.440       .  S
O3369      C3380   1.292       .  A
O3370      C3381   1.293       .  A
O3371     Zr3405   2.449       .  S
O3371      C3381   1.294       .  A
O3372     Zr3404   2.452       .  S
O3372      C3380   1.296       .  A
O3373     Zr3375   2.443       .  S
O3373      C3379   1.294       .  A
O3374     Zr3375   2.441       .  S
O3374      C3378   1.294       .  A
Zr3375     O3377   2.341       .  S
Zr3375     O3383   2.342       .  S
O3376     Zr3405   2.335       .  S
O3377     Zr3403   2.336       .  S
O3377     Zr3404   2.333       .  S
C3378      C3855   1.482       .  S
C3379      C3813   1.487       .  S
C3380      C3614   1.498       .  S
C3381      C3586   1.497       .  S
H3382      O3383   0.966       .  S
O3383     Zr3402   2.338       .  S
O3383     Zr3404   2.340       .  S
H3384      O3385   0.969       .  S
O3385     Zr3405   2.341       .  S
O3386     Zr3402   2.426       .  S
O3386      C3409   1.290       .  A
O3387     Zr3403   2.433       .  S
O3387      C3410   1.292       .  A
O3388     Zr3404   2.415       .  S
O3388      C3411   1.287       .  A
O3389     Zr3405   2.448       .  S
O3389      C3412   1.296       .  A
O3390     Zr3405   2.445       .  S
O3390      C3413   1.294       .  A
O3391     Zr3404   2.415       .  S
O3391      C3414   1.287       .  A
O3392     Zr3406   2.434       .  S
O3392      C3415   1.291       .  A
O3393      C3416   1.293       .  A
O3394     Zr3404   2.449       .  S
O3394      C3415   1.296       .  A
O3395     Zr3405   2.437       .  S
O3395      C3416   1.292       .  A
O3396     Zr3402   2.441       .  S
O3396      C3411   1.294       .  A
O3397     Zr3403   2.457       .  S
O3397      C3414   1.296       .  A
O3398      C3413   1.293       .  A
O3399      C3412   1.292       .  A
O3400     Zr3406   2.438       .  S
O3400      C3409   1.292       .  A
O3401     Zr3406   2.438       .  S
O3401      C3410   1.292       .  A
Zr3402     O3408   2.337       .  S
Zr3403     O3418   2.333       .  S
Zr3404     O3408   2.338       .  S
Zr3404     O3418   2.340       .  S
Zr3405     O3407   2.341       .  S
Zr3405     O3420   2.347       .  S
Zr3406     O3408   2.343       .  S
Zr3406     O3418   2.345       .  S
C3409      C3827   1.474       .  S
C3410      C3841   1.476       .  S
C3411      C3673   1.482       .  S
C3412      C3684   1.494       .  S
C3413      C3645   1.479       .  S
C3414      C3656   1.484       .  S
C3415      C3628   1.491       .  S
C3416      C3603   1.478       .  S
H3417      O3418   0.967       .  S
H3419      O3420   0.966       .  S
O3421     Zr3457   2.439       .  S
O3421      C3432   1.292       .  A
O3422     Zr3456   2.441       .  S
O3422      C3433   1.293       .  A
O3423     Zr3429   2.415       .  S
O3423      C3434   1.287       .  A
O3424      C3435   1.293       .  A
O3425     Zr3459   2.422       .  S
O3425      C3435   1.289       .  A
O3426     Zr3458   2.439       .  S
O3426      C3434   1.294       .  A
O3427     Zr3429   2.451       .  S
O3427      C3433   1.295       .  A
O3428     Zr3429   2.439       .  S
O3428      C3432   1.293       .  A
Zr3429     O3431   2.337       .  S
Zr3429     O3437   2.340       .  S
O3430     Zr3459   2.341       .  S
O3431     Zr3457   2.331       .  S
O3431     Zr3458   2.331       .  S
C3434      C3547   1.482       .  S
C3435      C3530   1.481       .  S
H3436      O3437   0.964       .  S
O3437     Zr3456   2.337       .  S
O3437     Zr3458   2.342       .  S
H3438      O3439   0.966       .  S
O3439     Zr3459   2.337       .  S
O3440     Zr3456   2.441   1_545  S
O3440      C3463   1.293       .  A
O3441     Zr3457   2.442       .  S
O3441      C3464   1.293       .  A
O3442     Zr3458   2.431       .  S
O3442      C3465   1.291       .  A
O3443     Zr3459   2.443       .  S
O3443      C3466   1.293       .  A
O3444     Zr3459   2.450       .  S
O3444      C3467   1.295       .  A
O3445     Zr3458   2.439       .  S
O3445      C3468   1.292       .  A
O3446     Zr3460   2.419       .  S
O3446      C3469   1.288       .  A
O3447      C3470   1.290       .  A
O3448     Zr3458   2.447       .  S
O3448      C3469   1.296       .  A
O3449     Zr3459   2.421       .  S
O3449      C3470   1.289       .  A
O3450     Zr3456   2.449       .  S
O3450      C3465   1.296       .  A
O3451     Zr3457   2.418       .  S
O3451      C3468   1.288       .  A
O3452      C3467   1.289       .  A
O3453      C3466   1.295       .  A
O3454     Zr3460   2.458   1_545  S
O3454      C3463   1.297       .  A
O3455     Zr3460   2.444   1_545  S
O3455      C3464   1.293   1_545  A
Zr3456     O3462   2.338       .  S
Zr3457     O3472   2.338       .  S
Zr3458     O3462   2.339       .  S
Zr3458     O3472   2.337       .  S
Zr3459     O3461   2.331       .  S
Zr3459     O3474   2.346       .  S
Zr3460     O3462   2.338       .  S
Zr3460     O3472   2.344       .  S
C3465      C3631   1.491       .  S
C3466      C3617   1.498       .  S
C3467      C3589   1.495       .  S
C3468      C3600   1.469       .  S
C3469      C3558   1.487       .  S
C3470      C3572   1.467       .  S
H3471      O3472   0.966       .  S
H3473      O3474   0.966       .  S
O3475     Zr3511   2.443       .  S
O3475      C3486   1.293       .  A
O3476     Zr3510   2.444       .  S
O3476      C3487   1.294       .  A
O3477     Zr4035   2.422       .  S
O3477      C3488   1.289       .  A
O3478     Zr3483   2.423       .  S
O3478      C3489   1.289       .  A
O3479     Zr3513   2.433       .  S
O3479      C3489   1.292       .  A
O3480     Zr3512   2.450       .  S
O3480      C3488   1.296       .  A
O3481     Zr3483   2.435       .  S
O3481      C3487   1.291       .  A
O3482     Zr3483   2.437       .  S
O3482      C3486   1.291       .  A
Zr3483     O4029   2.431       .  S
Zr3483     O3484   2.340       .  S
Zr3483     O4037   2.338       .  S
Zr3483     O3493   2.341       .  S
Zr3483     O4043   2.338       .  S
O3484     Zr3510   2.340       .  S
O3484     Zr3513   2.340       .  S
O3485     Zr4035   2.339       .  S
O3485     Zr4063   2.331       .  S
O3485     Zr3512   2.335       .  S
C3486      C4295   1.490       .  S
C3487      C4278   1.486       .  S
C3488      C3659   1.481       .  S
C3489      C3670   1.481       .  S
H3490      O3491   0.966       .  S
O3491     Zr4035   2.340       .  S
O3491     Zr4062   2.336   1_554  S
O3491     Zr3512   2.344       .  S
H3492      O3493   0.965       .  S
O3493     Zr3511   2.333       .  S
O3493     Zr3513   2.342       .  S
O3494     Zr3510   2.456       .  S
O3494      C3517   1.295       .  A
O3495     Zr3511   2.435       .  S
O3495      C3518   1.291       .  A
O3496     Zr3512   2.415       .  S
O3496      C3519   1.288       .  A
O3497     Zr3513   2.433       .  S
O3497      C3520   1.291       .  A
O3498     Zr3513   2.436       .  S
O3498      C3521   1.292       .  A
O3499     Zr3512   2.432       .  S
O3499      C3522   1.292       .  A
O3500     Zr4066   2.455   1_554  S
O3500      C3523   1.295       .  A
O3501     Zr3514   2.447       .  S
O3501      C3524   1.295       .  A
O3502     Zr3512   2.462       .  S
O3502      C3523   1.297       .  A
O3503     Zr3513   2.440       .  S
O3503      C3524   1.292       .  A
O3504     Zr4062   2.438   1_554  S
O3504      C3519   1.294       .  A
O3505     Zr4063   2.417       .  S
O3505      C3522   1.287       .  A
O3506     Zr3511   2.418       .  S
O3506      C3521   1.288       .  A
O3507     Zr3510   2.436       .  S
O3507      C3520   1.293       .  A
O3508     Zr3514   2.447       .  S
O3508      C3517   1.295       .  A
O3509     Zr3514   2.437       .  S
O3509      C3518   1.293       .  A
Zr3510     O4056   2.442       .  S
Zr3510     O4043   2.340       .  S
Zr3510     O4068   2.338       .  S
Zr3510     O3528   2.338       .  S
Zr3511     O4057   2.411       .  S
Zr3511     O4037   2.339       .  S
Zr3511     O3515   2.338       .  S
Zr3511     O4078   2.343       .  S
Zr3512     O3516   2.339       .  S
Zr3512     O3526   2.333       .  S
Zr3513     O3515   2.334       .  S
Zr3513     O3528   2.343       .  S
Zr3514     O4052   2.447       .  S
Zr3514     O3515   2.341       .  S
Zr3514     O4068   2.338       .  S
Zr3514     O3528   2.336       .  S
Zr3514     O4078   2.344       .  S
O3516     Zr4062   2.339   1_554  S
O3516     Zr4066   2.337   1_554  S
C3517      C4250   1.495       .  S
C3518      C4267   1.481       .  S
C3519      C3544   1.482       .  S
C3520      C3561   1.488       .  S
C3521      C3575   1.471       .  S
C3522      C3533   1.479       .  S
C3523      C3642   1.491       .  S
C3524      C3687   1.495       .  S
H3525      O3526   0.966       .  S
O3526     Zr4063   2.343       .  S
O3526     Zr4066   2.349   1_554  S
H3527      O3528   0.964       .  S
C3529      C3530   1.405       .  A
C3529      C3534   1.396       .  A
C3529      H3536   1.082       .  S
C3530      C3531   1.414       .  A
C3531      C3532   1.394       .  A
C3531      N3538   1.429       .  S
C3532      C3533   1.402       .  A
C3532      H3537   1.080       .  S
C3533      C3534   1.413       .  A
C3534      N3535   1.430       .  S
N3535      O3539   1.261       .  A
N3535      O3540   1.262       .  A
N3538      O3542   1.261       .  A
N3538      O3541   1.262       .  A
C3543      C3544   1.404       .  A
C3543      C3548   1.394       .  A
C3543      H3550   1.084       .  S
C3544      C3545   1.416       .  A
C3545      C3546   1.395       .  A
C3545      N3552   1.430       .  S
C3546      C3547   1.404       .  A
C3546      H3551   1.084       .  S
C3547      C3548   1.417       .  A
C3548      N3549   1.430       .  S
N3549      O3553   1.262       .  A
N3549      O3554   1.262       .  A
N3552      O3556   1.262       .  A
N3552      O3555   1.262       .  A
C3557      C3558   1.403       .  A
C3557      C3562   1.395       .  A
C3557      H3564   1.082       .  S
C3558      C3559   1.417       .  A
C3559      C3560   1.397       .  A
C3559      N3566   1.429       .  S
C3560      C3561   1.406       .  A
C3560      H3565   1.083       .  S
C3561      C3562   1.414       .  A
C3562      N3563   1.427       .  S
N3563      O3567   1.261       .  A
N3563      O3568   1.261       .  A
N3566      O3570   1.262       .  A
N3566      O3569   1.262       .  A
C3571      C3572   1.401       .  A
C3571      C3576   1.393       .  A
C3571      H3578   1.084       .  S
C3572      C3573   1.410       .  A
C3573      C3574   1.395       .  A
C3573      N3580   1.430       .  S
C3574      C3575   1.400       .  A
C3574      H3579   1.078       .  S
C3575      C3576   1.410       .  A
C3576      N3577   1.428       .  S
N3577      O3581   1.262       .  A
N3577      O3582   1.262       .  A
N3580      O3584   1.262       .  A
N3580      O3583   1.262       .  A
C3585      C3586   1.409       .  A
C3585      C3590   1.403       .  A
C3585      H3592   1.084       .  S
C3586      C3587   1.415       .  A
C3587      C3588   1.398       .  A
C3587      N3594   1.427       .  S
C3588      C3589   1.405       .  A
C3588      H3593   1.083       .  S
C3589      C3590   1.418       .  A
C3590      N3591   1.430       .  S
N3591      O3595   1.262       .  A
N3591      O3596   1.262       .  A
N3594      O3598   1.262       .  A
N3594      O3597   1.261       .  A
C3599      C3600   1.400       .  A
C3599      C3604   1.395       .  A
C3599      H3606   1.084       .  S
C3600      C3601   1.408       .  A
C3601      C3602   1.403       .  A
C3601      N3608   1.431       .  S
C3602      C3603   1.409       .  A
C3602      H3607   1.084       .  S
C3603      C3604   1.411       .  A
C3604      N3605   1.429       .  S
N3605      O3609   1.262       .  A
N3605      O3610   1.262       .  A
N3608      O3612   1.261       .  A
N3608      O3611   1.263       .  A
C3613      C3614   1.407       .  A
C3613      C3618   1.402       .  A
C3613      H3620   1.084       .  S
C3614      C3615   1.418       .  A
C3615      C3616   1.400       .  A
C3615      N3622   1.428       .  S
C3616      C3617   1.407       .  A
C3616      H3621   1.083       .  S
C3617      C3618   1.417       .  A
C3618      N3619   1.427       .  S
N3619      O3623   1.261       .  A
N3619      O3624   1.262       .  A
N3622      O3626   1.262       .  A
N3622      O3625   1.261       .  A
C3627      C3628   1.404       .  A
C3627      C3632   1.398       .  A
C3627      H3634   1.082       .  S
C3628      C3629   1.416       .  A
C3629      C3630   1.400       .  A
C3629      N3636   1.429       .  S
C3630      C3631   1.406       .  A
C3630      H3635   1.084       .  S
C3631      C3632   1.416       .  A
C3632      N3633   1.429       .  S
N3633      O3637   1.261       .  A
N3633      O3638   1.262       .  A
N3636      O3640   1.262       .  A
N3636      O3639   1.260       .  A
C3641      C3642   1.410       .  A
C3641      C3646   1.409       .  A
C3641      H3648   1.084       .  S
C3642      C3643   1.413       .  A
C3643      C3644   1.401       .  A
C3643      N3650   1.426       .  S
C3644      C3645   1.398       .  A
C3644      H3649   1.082       .  S
C3645      C3646   1.409       .  A
C3646      N3647   1.431       .  S
N3647      O3651   1.262       .  A
N3647      O3652   1.262       .  A
N3650      O3654   1.261       .  A
N3650      O3653   1.262       .  A
C3655      C3656   1.403       .  A
C3655      C3660   1.399       .  A
C3655      H3662   1.084       .  S
C3656      C3657   1.417       .  A
C3657      C3658   1.398       .  A
C3657      N3664   1.429       .  S
C3658      C3659   1.401       .  A
C3658      H3663   1.084       .  S
C3659      C3660   1.415       .  A
C3660      N3661   1.429       .  S
N3661      O3665   1.261       .  A
N3661      O3666   1.262       .  A
N3664      O3668   1.262       .  A
N3664      O3667   1.262       .  A
C3669      C3670   1.402       .  A
C3669      C3674   1.394       .  A
C3669      H3676   1.080       .  S
C3670      C3671   1.413       .  A
C3671      C3672   1.395       .  A
C3671      N3678   1.428       .  S
C3672      C3673   1.404       .  A
C3672      H3677   1.084       .  S
C3673      C3674   1.415       .  A
C3674      N3675   1.428       .  S
N3675      O3679   1.261       .  A
N3675      O3680   1.262       .  A
N3678      O3682   1.262       .  A
N3678      O3681   1.261       .  A
C3683      C3684   1.404       .  A
C3683      C3688   1.398       .  A
C3683      H3690   1.084       .  S
C3684      C3685   1.416       .  A
C3685      C3686   1.401       .  A
C3685      N3692   1.426       .  S
C3686      C3687   1.405       .  A
C3686      H3691   1.084       .  S
C3687      C3688   1.416       .  A
C3688      N3689   1.426       .  S
N3689      O3693   1.261       .  A
N3689      O3694   1.261       .  A
N3692      O3696   1.259       .  A
N3692      O3695   1.260       .  A
C3697      C4250   1.408       .  A
C3697      C3702   1.405       .  A
C3697      H3704   1.084       .  S
C3698      C4069   1.501       .  S
C3698      C4249   1.406       .  A
C3698      C3699   1.418   1_554  A
C3699      C3700   1.403       .  A
C3699      N3706   1.428       .  S
C3700      C3701   1.407   1_556  A
C3700      H3705   1.084       .  S
C3701      C4254   1.418       .  A
C3702      C4253   1.415       .  A
C3702      N3703   1.429       .  S
N3703      O3707   1.262       .  A
N3703      O3708   1.262       .  A
N3706      O4262   1.261       .  A
N3706      O3709   1.262   1_556  A
O3710      N4258   1.262       .  A
C3711      C3712   1.406   1_554  A
C3711      C3716   1.401       .  A
C3711      H3718   1.083       .  S
C3712      C4265   1.417       .  A
C3713      C4264   1.414       .  A
C3713      C3714   1.399       .  A
C3713      N3720   1.430       .  S
C3714      C4267   1.405       .  A
C3714      H3719   1.084       .  S
C3715      C4070   1.495       .  S
C3715      C4266   1.405   1_554  A
C3715      C3716   1.418       .  A
C3716      N3717   1.429       .  S
N3717      O3721   1.262   1_554  A
N3717      O3722   1.262       .  A
N3720      O3724   1.262       .  A
N3720      O3723   1.262       .  A
C3725      C3726   1.405   1_554  A
C3725      C3730   1.399       .  A
C3725      H3732   1.084       .  S
C3726      C4039   1.485       .  S
C3726      C4279   1.414       .  A
C3727      C4278   1.415       .  A
C3727      C3728   1.399       .  A
C3727      N3734   1.429       .  S
C3728      C4281   1.405       .  A
C3728      H3733   1.084       .  S
C3729      C4280   1.403   1_554  A
C3729      C3730   1.416       .  A
C3730      N3731   1.430       .  S
N3731      O3735   1.262       .  A
N3731      O4288   1.262       .  A
N3734      O3738   1.262       .  A
N3734      O4289   1.262       .  A
O3736      N4283   1.262       .  A
O3737      N4286   1.261       .  A
C3739      C3740   1.402       .  A
C3739      C3744   1.401       .  A
C3739      H3746   1.084       .  S
C3740      C4293   1.409   1_554  A
C3741      C4292   1.414       .  A
C3741      C4294   1.401       .  A
C3741      N3748   1.431       .  S
C3742      C4293   1.399       .  A
C3742      C3743   1.404   1_556  A
C3742      H3747   1.078       .  S
C3743      C4038   1.486       .  S
C3743      C3744   1.414       .  A
C3744      N3745   1.429       .  S
N3745      O4301   1.262       .  A
N3745      O3750   1.262       .  A
N3748      O4304   1.262       .  A
N3748      O3751   1.262       .  A
O3749      N4297   1.262       .  A
O3752      N4300   1.261       .  A
C3753      C3754   1.402       .  A
C3753      C3758   1.398       .  A
C3753      H3760   1.084       .  S
C3755      C3756   1.403       .  A
C3755      N3762   1.431       .  S
C3756      H3761   1.084       .  S
C3757      C3758   1.412       .  A
C3758      N3759   1.429       .  S
N3759      O3763   1.262       .  A
N3759      O3764   1.262       .  A
N3762      O3766   1.262       .  A
N3762      O3765   1.262       .  A
C3767      C3772   1.401       .  A
C3767      H3774   1.084       .  S
C3768      C3769   1.416       .  A
C3769      C3770   1.405       .  A
C3769      N3776   1.429       .  S
C3770      C3771   1.407       .  A
C3770      H3775   1.084       .  S
C3772      N3773   1.429       .  S
N3773      O3777   1.262       .  A
N3776      O3780   1.262       .  A
C3781      C3786   1.405       .  A
C3781      H3788   1.084       .  S
C3782      C3783   1.411       .  A
C3783      C3784   1.397       .  A
C3783      N3790   1.426       .  S
C3784      C3785   1.404       .  A
C3784      H3789   1.084       .  S
C3786      N3787   1.430       .  S
N3787      O3791   1.262       .  A
N3787      O3792   1.262       .  A
N3790      O3794   1.261       .  A
N3790      O3793   1.262       .  A
C3795      C3796   1.404       .  A
C3795      C3800   1.398       .  A
C3795      H3802   1.084       .  S
C3797      C3798   1.401       .  A
C3797      N3804   1.429       .  S
C3798      H3803   1.084       .  S
C3799      C3800   1.414       .  A
C3800      N3801   1.428       .  S
N3801      O3806   1.262       .  A
N3804      O3807   1.262       .  A
C3809      C3810   1.401       .  A
C3809      C3814   1.396       .  A
C3809      H3816   1.084       .  S
C3811      C3812   1.400       .  A
C3811      N3818   1.427       .  S
C3812      H3817   1.083       .  S
C3813      C3814   1.413       .  A
C3814      N3815   1.423       .  S
N3815      O3819   1.262       .  A
N3815      O3820   1.262       .  A
N3818      O3822   1.262       .  A
N3818      O3821   1.262       .  A
C3823      C3824   1.398       .  A
C3823      C3828   1.393       .  A
C3823      H3830   1.084       .  S
C3825      C3826   1.396       .  A
C3825      N3832   1.431       .  S
C3826      H3831   1.078       .  S
C3827      C3828   1.409       .  A
C3828      N3829   1.424       .  S
N3829      O3833   1.260       .  A
N3829      O3834   1.262       .  A
N3832      O3836   1.262       .  A
N3832      O3835   1.262       .  A
C3837      C3842   1.394       .  A
C3837      H3844   1.084       .  S
C3838      C3839   1.409       .  A
C3839      C3840   1.399       .  A
C3839      N3846   1.431       .  S
C3840      C3841   1.407       .  A
C3840      H3845   1.084       .  S
C3842      N3843   1.429       .  S
N3843      O3847   1.262       .  A
N3843      O3848   1.262       .  A
N3846      O3850   1.262       .  A
N3846      O3849   1.262       .  A
C3851      C3856   1.397       .  A
C3851      H3858   1.084       .  S
C3852      C3853   1.413       .  A
C3853      C3854   1.399       .  A
C3853      N3860   1.429       .  S
C3854      C3855   1.404       .  A
C3854      H3859   1.081       .  S
C3856      N3857   1.429       .  S
N3857      O3861   1.262       .  A
N3857      O3862   1.262       .  A
N3860      O3864   1.262       .  A
N3860      O3863   1.262       .  A
O3865     Zr3901   2.425       .  S
O3865      C3876   1.290       .  A
O3866     Zr3900   2.428       .  S
O3866      C3877   1.289       .  A
O3867     Zr3873   2.437       .  S
O3867      C3878   1.293       .  A
O3868      C3879   1.292       .  A
O3869     Zr3903   2.442       .  S
O3869      C3879   1.294       .  A
O3870     Zr3902   2.420       .  S
O3870      C3878   1.288       .  A
O3871      C3877   1.296       .  A
O3872     Zr3873   2.440       .  S
O3872      C3876   1.293       .  A
Zr3873     O3875   2.338       .  S
O3875     Zr3901   2.342       .  S
O3875     Zr3902   2.341       .  S
C3876      C4404   1.475       .  S
C3877      C4362   1.485       .  S
C3878      C4292   1.482       .  S
C3879      C4264   1.482       .  S
H3880      O3881   0.958       .  S
O3881     Zr3900   2.339       .  S
H3882      O3883   0.958       .  S
O3883     Zr3903   2.337       .  S
O3884      C3907   1.290       .  A
O3885      C3908   1.290       .  A
O3886      C3909   1.290       .  A
O3887      C3910   1.291       .  A
O3888     Zr3903   2.436       .  S
O3888      C3911   1.291       .  A
O3889     Zr3902   2.442       .  S
O3889      C3912   1.294       .  A
O3890     Zr3904   2.444       .  S
O3890      C3913   1.294       .  A
O3891      C3914   1.294       .  A
O3892      C3913   1.291       .  A
O3893      C3914   1.295       .  A
O3894     Zr3900   2.460       .  S
O3894      C3909   1.298       .  A
O3895     Zr3901   2.446       .  S
O3895      C3912   1.293       .  A
O3896      C3911   1.293       .  A
O3897      C3910   1.294       .  A
O3898      C3907   1.287       .  A
O3899     Zr3904   2.415       .  S
O3899      C3908   1.288       .  A
Zr3904     O3916   2.336       .  S
C3907      C4376   1.470       .  S
C3908      C4390   1.469       .  S
C3909      C4320   1.490       .  S
C3910      C4306   1.477       .  S
C3911      C4351   1.488       .  S
C3912      C4337   1.492       .  S
C3913      C4281   1.486       .  S
C3914      C4253   1.494       .  S
H3915      O3916   0.946       .  S
H3917      O3918   0.970       .  S
O3919     Zr3955   2.431       .  S
O3919      C3930   1.291       .  A
O3920     Zr3954   2.440       .  S
O3920      C3931   1.292       .  A
O3921     Zr3927   2.440       .  S
O3921      C3932   1.292       .  A
O3922      C3933   1.294       .  A
O3923     Zr3957   2.428       .  S
O3923      C3933   1.290       .  A
O3924     Zr3956   2.445       .  S
O3924      C3932   1.295       .  A
O3925     Zr3927   2.446       .  S
O3925      C3931   1.294       .  A
O3926     Zr3927   2.439       .  S
O3926      C3930   1.293       .  A
Zr3927     O3929   2.341       .  S
Zr3927     O3935   2.343       .  S
O3928     Zr3957   2.339       .  S
O3929     Zr3955   2.334       .  S
O3929     Zr3956   2.334       .  S
C3930      C4407   1.475       .  S
C3931      C4365   1.488       .  S
C3932      C4166   1.494       .  S
C3933      C4138   1.485       .  S
H3934      O3935   0.966       .  S
O3935     Zr3954   2.335       .  S
O3935     Zr3956   2.344       .  S
H3936      O3937   0.969       .  S
O3937     Zr3957   2.343       .  S
O3938     Zr3954   2.426       .  S
O3938      C3961   1.291       .  A
O3939     Zr3955   2.435       .  S
O3939      C3962   1.292       .  A
O3940     Zr3956   2.423       .  S
O3940      C3963   1.289       .  A
O3941     Zr3957   2.438       .  S
O3941      C3964   1.293       .  A
O3942     Zr3957   2.436       .  S
O3942      C3965   1.292       .  A
O3943     Zr3956   2.432       .  S
O3943      C3966   1.291       .  A
O3944     Zr3958   2.425       .  S
O3944      C3967   1.289       .  A
O3945      C3968   1.292       .  A
O3946     Zr3956   2.457       .  S
O3946      C3967   1.297       .  A
O3947     Zr3957   2.436       .  S
O3947      C3968   1.292       .  A
O3948     Zr3954   2.443       .  S
O3948      C3963   1.294       .  A
O3949     Zr3955   2.455       .  S
O3949      C3966   1.296       .  A
O3950      C3965   1.294       .  A
O3951      C3964   1.296       .  A
O3952     Zr3958   2.427       .  S
O3952      C3961   1.290       .  A
O3953     Zr3958   2.426       .  S
O3953      C3962   1.290       .  A
Zr3954     O3960   2.338       .  S
Zr3955     O3970   2.334       .  S
Zr3956     O3960   2.337       .  S
Zr3956     O3970   2.338       .  S
Zr3957     O3959   2.336       .  S
Zr3957     O3972   2.341       .  S
Zr3958     O3960   2.339       .  S
Zr3958     O3970   2.346       .  S
C3961      C4379   1.477       .  S
C3962      C4393   1.476       .  S
C3963      C4225   1.486       .  S
C3964      C4236   1.494       .  S
C3965      C4197   1.479       .  S
C3966      C4208   1.487       .  S
C3967      C4180   1.492       .  S
C3968      C4155   1.484       .  S
H3969      O3970   0.967       .  S
H3971      O3972   0.966       .  S
O3973     Zr4009   2.437       .  S
O3973      C3984   1.291       .  A
O3974     Zr4008   2.436       .  S
O3974      C3985   1.293       .  A
O3975     Zr3981   2.434       .  S
O3975      C3986   1.291       .  A
O3976      C3987   1.290       .  A
O3977     Zr4011   2.425       .  S
O3977      C3987   1.289       .  A
O3978     Zr4010   2.447       .  S
O3978      C3986   1.295       .  A
O3979     Zr3981   2.444   1_545  S
O3979      C3985   1.293       .  A
O3980     Zr3981   2.440       .  S
O3980      C3984   1.294       .  A
Zr3981     O3983   2.335       .  S
Zr3981     O3989   2.344       .  S
O3982     Zr4011   2.338       .  S
O3983     Zr4009   2.335       .  S
O3983     Zr4010   2.335       .  S
C3986      C4099   1.482       .  S
C3987      C4082   1.477       .  S
H3988      O3989   0.964       .  S
O3989     Zr4008   2.342   1_565  S
O3989     Zr4010   2.343       .  S
H3990      O3991   0.965       .  S
O3991     Zr4011   2.334       .  S
O3992     Zr4008   2.443       .  S
O3992      C4015   1.293       .  A
O3993     Zr4009   2.435       .  S
O3993      C4016   1.292       .  A
O3994     Zr4010   2.432       .  S
O3994      C4017   1.290       .  A
O3995     Zr4011   2.443       .  S
O3995      C4018   1.293       .  A
O3996     Zr4011   2.439       .  S
O3996      C4019   1.293       .  A
O3997     Zr4010   2.437       .  S
O3997      C4020   1.292       .  A
O3998     Zr4012   2.427   1_565  S
O3998      C4021   1.290       .  A
O3999      C4022   1.289       .  A
O4000     Zr4010   2.446       .  S
O4000      C4021   1.295       .  A
O4001     Zr4011   2.420       .  S
O4001      C4022   1.288       .  A
O4002     Zr4008   2.454   1_565  S
O4002      C4017   1.297       .  A
O4003     Zr4009   2.418       .  S
O4003      C4020   1.289       .  A
O4004      C4019   1.290       .  A
O4005      C4018   1.294       .  A
O4006     Zr4012   2.449       .  S
O4006      C4015   1.295       .  A
O4007     Zr4012   2.451       .  S
O4007      C4016   1.295   1_545  A
Zr4008     O4014   2.339   1_545  S
Zr4009     O4024   2.339       .  S
Zr4010     O4014   2.340       .  S
Zr4010     O4024   2.341       .  S
Zr4011     O4013   2.340       .  S
Zr4011     O4026   2.344       .  S
Zr4012     O4014   2.341   1_545  S
Zr4012     O4024   2.342   1_545  S
C4017      C4183   1.495       .  S
C4018      C4169   1.495       .  S
C4019      C4141   1.485       .  S
C4020      C4152   1.475       .  S
C4021      C4110   1.487       .  S
C4022      C4124   1.463       .  S
H4023      O4024   0.966       .  S
H4025      O4026   0.966       .  S
O4027     Zr4063   2.447       .  S
O4027      C4038   1.294       .  A
O4028     Zr4062   2.438       .  S
O4028      C4039   1.293       .  A
O4029      C4040   1.290       .  A
O4030     Zr4035   2.433   1_556  S
O4030      C4041   1.291       .  A
O4031     Zr4065   2.433       .  S
O4031      C4041   1.292       .  A
O4032     Zr4064   2.455       .  S
O4032      C4040   1.296       .  A
O4033     Zr4035   2.432   1_556  S
O4033      C4039   1.291       .  A
O4034     Zr4035   2.439       .  S
O4034      C4038   1.292       .  A
Zr4035     O4036   2.339   1_554  S
Zr4035     O4045   2.337   1_554  S
O4036     Zr4062   2.338       .  S
O4036     Zr4065   2.337       .  S
O4037     Zr4064   2.340       .  S
C4040      C4211   1.486       .  S
C4041      C4222   1.485       .  S
H4042      O4043   0.966       .  S
O4043     Zr4064   2.342       .  S
H4044      O4045   0.964       .  S
O4045     Zr4063   2.336   1_556  S
O4045     Zr4065   2.344       .  S
O4046     Zr4062   2.442   1_554  S
O4046      C4069   1.293       .  A
O4047     Zr4063   2.433       .  S
O4047      C4070   1.291       .  A
O4048     Zr4064   2.437       .  S
O4048      C4071   1.292       .  A
O4049     Zr4065   2.435       .  S
O4049      C4072   1.291       .  A
O4050     Zr4065   2.426       .  S
O4050      C4073   1.291       .  A
O4051     Zr4064   2.434       .  S
O4051      C4074   1.293       .  A
O4052      C4075   1.294       .  A
O4053     Zr4066   2.458       .  S
O4053      C4076   1.298       .  A
O4054     Zr4064   2.461       .  S
O4054      C4075   1.297       .  A
O4055     Zr4065   2.440       .  S
O4055      C4076   1.292       .  A
O4056      C4071   1.294       .  A
O4057      C4074   1.286       .  A
O4058     Zr4063   2.414   1_556  S
O4058      C4073   1.287       .  A
O4059     Zr4062   2.443       .  S
O4059      C4072   1.294       .  A
O4060     Zr4066   2.458   1_554  S
O4060      C4069   1.298       .  A
O4061     Zr4066   2.455   1_554  S
O4061      C4070   1.297       .  A
Zr4062     O4080   2.337       .  S
Zr4063     O4067   2.347   1_554  S
Zr4064     O4068   2.343       .  S
Zr4064     O4078   2.342       .  S
Zr4065     O4067   2.341       .  S
Zr4065     O4080   2.340       .  S
Zr4066     O4067   2.345       .  S
Zr4066     O4080   2.342       .  S
C4071      C4096   1.480       .  S
C4072      C4113   1.489       .  S
C4073      C4127   1.464       .  S
C4074      C4085   1.478       .  S
C4075      C4194   1.488       .  S
C4076      C4239   1.493       .  S
H4077      O4078   0.966       .  S
H4079      O4080   0.965       .  S
C4081      C4082   1.405       .  A
C4081      C4086   1.393       .  A
C4081      H4088   1.083       .  S
C4082      C4083   1.412       .  A
C4083      C4084   1.393       .  A
C4083      N4090   1.430       .  S
C4084      C4085   1.404       .  A
C4084      H4089   1.081       .  S
C4085      C4086   1.414       .  A
C4086      N4087   1.430       .  S
N4087      O4091   1.262       .  A
N4087      O4092   1.262       .  A
N4090      O4094   1.261       .  A
N4090      O4093   1.262       .  A
C4095      C4096   1.403       .  A
C4095      C4100   1.399       .  A
C4095      H4102   1.084       .  S
C4096      C4097   1.412       .  A
C4097      C4098   1.400       .  A
C4097      N4104   1.430       .  S
C4098      C4099   1.405       .  A
C4098      H4103   1.084       .  S
C4099      C4100   1.414       .  A
C4100      N4101   1.429       .  S
N4101      O4105   1.262       .  A
N4101      O4106   1.262       .  A
N4104      O4108   1.262       .  A
N4104      O4107   1.262       .  A
C4109      C4110   1.403       .  A
C4109      C4114   1.398       .  A
C4109      H4116   1.080       .  S
C4110      C4111   1.415       .  A
C4111      C4112   1.399       .  A
C4111      N4118   1.429       .  S
C4112      C4113   1.404       .  A
C4112      H4117   1.081       .  S
C4113      C4114   1.414       .  A
C4114      N4115   1.427       .  S
N4115      O4119   1.261       .  A
N4115      O4120   1.262       .  A
N4118      O4122   1.262       .  A
N4118      O4121   1.262       .  A
C4123      C4124   1.399       .  A
C4123      C4128   1.390       .  A
C4123      H4130   1.085       .  S
C4124      C4125   1.409       .  A
C4125      C4126   1.393       .  A
C4125      N4132   1.427       .  S
C4126      C4127   1.401       .  A
C4126      H4131   1.084       .  S
C4127      C4128   1.409       .  A
C4128      N4129   1.426       .  S
N4129      O4133   1.262       .  A
N4129      O4134   1.262       .  A
N4132      O4136   1.262       .  A
N4132      O4135   1.262       .  A
C4137      C4138   1.405       .  A
C4137      C4142   1.398       .  A
C4137      H4144   1.084       .  S
C4138      C4139   1.415       .  A
C4139      C4140   1.397       .  A
C4139      N4146   1.429       .  S
C4140      C4141   1.403       .  A
C4140      H4145   1.081       .  S
C4141      C4142   1.414       .  A
C4142      N4143   1.428       .  S
N4143      O4147   1.262       .  A
N4143      O4148   1.262       .  A
N4146      O4150   1.262       .  A
N4146      O4149   1.262       .  A
C4151      C4152   1.402       .  A
C4151      C4156   1.396       .  A
C4151      H4158   1.084       .  S
C4152      C4153   1.409       .  A
C4153      C4154   1.401       .  A
C4153      N4160   1.431       .  S
C4154      C4155   1.409       .  A
C4154      H4159   1.084       .  S
C4155      C4156   1.414       .  A
C4156      N4157   1.430       .  S
N4157      O4161   1.262       .  A
N4157      O4162   1.262       .  A
N4160      O4164   1.262       .  A
N4160      O4163   1.262       .  A
C4165      C4166   1.406       .  A
C4165      C4170   1.399       .  A
C4165      H4172   1.083       .  S
C4166      C4167   1.416       .  A
C4167      C4168   1.401       .  A
C4167      N4174   1.429       .  S
C4168      C4169   1.408       .  A
C4168      H4173   1.083       .  S
C4169      C4170   1.416       .  A
C4170      N4171   1.428       .  S
N4171      O4175   1.262       .  A
N4171      O4176   1.262       .  A
N4174      O4178   1.262       .  A
N4174      O4177   1.262       .  A
C4179      C4180   1.403       .  A
C4179      C4184   1.398       .  A
C4179      H4186   1.082       .  S
C4180      C4181   1.419       .  A
C4181      C4182   1.401       .  A
C4181      N4188   1.430       .  S
C4182      C4183   1.406       .  A
C4182      H4187   1.084       .  S
C4183      C4184   1.417       .  A
C4184      N4185   1.427       .  S
N4185      O4189   1.261       .  A
N4185      O4190   1.262       .  A
N4188      O4192   1.262       .  A
N4188      O4191   1.261       .  A
C4193      C4194   1.409       .  A
C4193      C4198   1.406       .  A
C4193      H4200   1.084       .  S
C4194      C4195   1.413       .  A
C4195      C4196   1.400       .  A
C4195      N4202   1.427       .  S
C4196      C4197   1.401       .  A
C4196      H4201   1.084       .  S
C4197      C4198   1.410       .  A
C4198      N4199   1.431       .  S
N4199      O4203   1.262       .  A
N4199      O4204   1.262       .  A
N4202      O4206   1.261       .  A
N4202      O4205   1.262       .  A
C4207      C4208   1.403       .  A
C4207      C4212   1.401       .  A
C4207      H4214   1.084       .  S
C4208      C4209   1.415       .  A
C4209      C4210   1.401       .  A
C4209      N4216   1.428       .  S
C4210      C4211   1.403       .  A
C4210      H4215   1.084       .  S
C4211      C4212   1.416       .  A
C4212      N4213   1.429       .  S
N4213      O4217   1.262       .  A
N4213      O4218   1.262       .  A
N4216      O4220   1.262       .  A
N4216      O4219   1.262       .  A
C4221      C4222   1.404       .  A
C4221      C4226   1.397       .  A
C4221      H4228   1.082       .  S
C4222      C4223   1.413       .  A
C4223      C4224   1.397       .  A
C4223      N4230   1.429       .  S
C4224      C4225   1.404       .  A
C4224      H4229   1.082       .  S
C4225      C4226   1.415       .  A
C4226      N4227   1.429       .  S
N4227      O4231   1.261       .  A
N4227      O4232   1.262       .  A
N4230      O4234   1.262       .  A
N4230      O4233   1.261       .  A
C4235      C4236   1.407       .  A
C4235      C4240   1.405       .  A
C4235      H4242   1.084       .  S
C4236      C4237   1.412       .  A
C4237      C4238   1.400       .  A
C4237      N4244   1.425       .  S
C4238      C4239   1.403       .  A
C4238      H4243   1.084       .  S
C4239      C4240   1.418       .  A
C4240      N4241   1.429       .  S
N4241      O4245   1.262       .  A
N4241      O4246   1.262       .  A
N4244      O4248   1.262       .  A
N4244      O4247   1.261       .  A
C4249      C4254   1.403       .  A
C4249      H4256   1.084       .  S
C4250      C4251   1.414       .  A
C4251      C4252   1.402       .  A
C4251      N4258   1.428       .  S
C4252      C4253   1.406       .  A
C4252      H4257   1.084       .  S
C4254      N4255   1.429       .  S
N4255      O4259   1.262       .  A
N4255      O4260   1.261   1_554  A
N4258      O4261   1.262       .  A
C4263      C4264   1.405       .  A
C4263      C4268   1.398       .  A
C4263      H4270   1.084       .  S
C4265      C4266   1.399       .  A
C4265      N4272   1.428       .  S
C4266      H4271   1.083       .  S
C4267      C4268   1.413       .  A
C4268      N4269   1.429       .  S
N4269      O4273   1.262       .  A
N4269      O4274   1.262       .  A
N4272      O4276   1.262   1_556  A
N4272      O4275   1.262       .  A
C4277      C4278   1.405       .  A
C4277      C4282   1.400       .  A
C4277      H4284   1.084       .  S
C4279      C4280   1.397       .  A
C4279      N4286   1.428       .  S
C4280      H4285   1.084       .  S
C4281      C4282   1.414       .  A
C4282      N4283   1.429       .  S
N4283      O4287   1.262       .  A
N4286      O4290   1.262       .  A
C4291      C4292   1.401       .  A
C4291      C4296   1.396       .  A
C4291      H4298   1.084       .  S
C4293      N4300   1.431       .  S
C4294      C4295   1.408       .  A
C4294      H4299   1.082       .  S
C4295      C4296   1.416       .  A
C4296      N4297   1.428       .  S
N4297      O4302   1.262       .  A
N4300      O4303   1.263       .  A
C4305      C4306   1.402       .  A
C4305      C4310   1.398       .  A
C4305      H4312   1.084       .  S
C4307      C4308   1.403       .  A
C4307      N4314   1.430       .  S
C4308      H4313   1.084       .  S
C4309      C4310   1.412       .  A
C4310      N4311   1.429       .  S
N4311      O4315   1.262       .  A
N4311      O4316   1.262       .  A
N4314      O4318   1.262       .  A
N4314      O4317   1.262       .  A
C4319      C4324   1.402       .  A
C4319      H4326   1.084       .  S
C4320      C4321   1.417       .  A
C4321      C4322   1.405       .  A
C4321      N4328   1.429       .  S
C4322      C4323   1.406       .  A
C4322      H4327   1.084       .  S
C4324      N4325   1.429       .  S
N4325      O4329   1.262       .  A
N4328      O4332   1.261       .  A
C4333      C4338   1.399       .  A
C4333      H4340   1.084       .  S
C4334      C4335   1.414       .  A
C4335      C4336   1.399       .  A
C4335      N4342   1.428       .  S
C4336      C4337   1.406       .  A
C4336      H4341   1.084       .  S
C4338      N4339   1.430       .  S
N4339      O4343   1.262       .  A
N4339      O4344   1.262       .  A
N4342      O4346   1.261       .  A
N4342      O4345   1.262       .  A
C4347      C4348   1.406       .  A
C4347      C4352   1.400       .  A
C4347      H4354   1.084       .  S
C4349      C4350   1.400       .  A
C4349      N4356   1.430       .  S
C4350      H4355   1.084       .  S
C4351      C4352   1.415       .  A
C4352      N4353   1.429       .  S
N4353      O4358   1.262       .  A
N4356      O4359   1.262       .  A
C4361      C4362   1.402       .  A
C4361      C4366   1.398       .  A
C4361      H4368   1.084       .  S
C4363      C4364   1.401       .  A
C4363      N4370   1.430       .  S
C4364      H4369   1.084       .  S
C4365      C4366   1.414       .  A
C4366      N4367   1.427       .  S
N4367      O4371   1.262       .  A
N4367      O4372   1.262       .  A
N4370      O4374   1.262   1_655  A
N4370      O4373   1.262       .  A
C4375      C4376   1.399       .  A
C4375      C4380   1.392       .  A
C4375      H4382   1.084       .  S
C4377      C4378   1.394       .  A
C4377      N4384   1.427       .  S
C4378      H4383   1.084       .  S
C4379      C4380   1.412       .  A
C4380      N4381   1.425       .  S
N4381      O4385   1.261       .  A
N4381      O4386   1.262       .  A
N4384      O4388   1.261       .  A
N4384      O4387   1.262       .  A
C4389      C4394   1.393       .  A
C4389      H4396   1.084       .  S
C4390      C4391   1.411       .  A
C4391      C4392   1.398       .  A
C4391      N4398   1.432       .  S
C4392      C4393   1.406       .  A
C4392      H4397   1.084       .  S
C4394      N4395   1.429       .  S
N4395      O4399   1.262       .  A
N4395      O4400   1.262       .  A
N4398      O4402   1.262       .  A
N4398      O4401   1.262       .  A
C4403      C4408   1.399       .  A
C4403      H4410   1.084       .  S
C4404      C4405   1.413       .  A
C4405      C4406   1.397       .  A
C4405      N4412   1.430       .  S
C4406      C4407   1.403       .  A
C4406      H4411   1.084       .  S
C4408      N4409   1.429       .  S
N4409      O4413   1.262       .  A
N4409      O4414   1.262       .  A
N4412      O4416   1.262       .  A
N4412      O4415   1.262       .  A
