geometry optimzed in LAMMPS
_audit_creation_date              2020-11-30 
_audit_creation_method            'lammps2cif' 
_symmetry_space_group_name_H-M    'P1' 
_symmetry_Int_Tables_number       1 
_symmetry_cell_setting            triclinic 
loop_ 
_symmetry_equiv_pos_as_xyz 
  x,y,z 
_cell_length_a                    38.11306005 
_cell_length_b                    38.57924090679092 
_cell_length_c                    36.97153165907221 
_cell_angle_alpha                 90.06240933940424 
_cell_angle_beta                  89.98575955878104 
_cell_angle_gamma                 90.03162502787134 
loop_ 
_atom_site_label 
_atom_site_type_symbol 
_atom_site_fract_x 
_atom_site_fract_y 
_atom_site_fract_z 
_atom_site_charge 
C1          C  0.36163479  0.36692981  0.12635338     0.86400
C2          C  0.33777726  0.38899276  0.15107139    -0.53900
C3          C  0.31731717  0.36973774  0.17351593     0.09300
C4          C  0.32225471  0.33068107  0.16969138     0.20200
C5          C  0.38239464  0.34316084  0.15246606    -0.54600
C6          C  0.36143544  0.32466384  0.17517158     0.09400
C7          C  0.33629694  0.34166219  0.10657230    -0.54100
C8          C  0.31586243  0.32294847  0.12975082     0.10000
H9          H  0.33728317  0.41714576  0.15083358     0.14500
H10         H  0.30544132  0.31524737  0.18830852     0.00200
H11         H  0.41082128  0.34136790  0.15314249     0.14800
H12         H  0.33509993  0.33781022  0.07756319     0.14600
C13         C  0.36385201  0.21719057  0.30569221     0.86400
C14         C  0.33876924  0.19504294  0.28231290    -0.53900
C15         C  0.31770635  0.21425298  0.26041929     0.09300
C16         C  0.32330824  0.25328538  0.26342595     0.20200
C17         C  0.38390254  0.24026925  0.27837383    -0.54600
C18         C  0.36235060  0.25872166  0.25626212     0.09400
C19         C  0.33955495  0.24301117  0.32605938    -0.54100
C20         C  0.31847863  0.26157529  0.30347225     0.10000
H21         H  0.33792108  0.16690573  0.28301294     0.14500
H22         H  0.30600402  0.26867884  0.24528334     0.00200
H23         H  0.41230832  0.24161509  0.27649991     0.14800
H24         H  0.33929488  0.24733067  0.35500308     0.14600
C25         C  0.19857373  0.20580933  0.14015342     0.86400
C26         C  0.22349054  0.22822695  0.11676014    -0.53900
C27         C  0.24407885  0.25003076  0.13649311     0.09300
C28         C  0.23863221  0.24749963  0.17730653     0.20200
C29         C  0.22346888  0.18710339  0.16710863    -0.54600
C30         C  0.24410935  0.20930930  0.18626705     0.09400
C31         C  0.17821291  0.23222039  0.16382136    -0.54100
C32         C  0.19953250  0.25384312  0.18315063     0.10000
H33         H  0.22444009  0.22715514  0.08741855     0.14500
H34         H  0.25577051  0.26528671  0.19313905     0.00200
H35         H  0.22556191  0.15939362  0.17093643     0.14800
H36         H  0.14977953  0.23356214  0.16509285     0.14600
C37         C  0.20113836  0.37872684  0.29683548     0.86400
C38         C  0.22645099  0.35613907  0.31964885    -0.53900
C39         C  0.24644178  0.33426112  0.29934028     0.09300
C40         C  0.24016008  0.33697559  0.25867784     0.20200
C41         C  0.22578554  0.39743119  0.26965550    -0.54600
C42         C  0.24583467  0.37518216  0.24987042     0.09400
C43         C  0.18016354  0.35253085  0.27357996    -0.54100
C44         C  0.20089699  0.33090607  0.25366812     0.10000
H45         H  0.22833608  0.35729185  0.34893195     0.14500
H46         H  0.25683321  0.31915102  0.24238169     0.00200
H47         H  0.22826535  0.42525253  0.26664899     0.14800
H48         H  0.15170025  0.35137920  0.27293026     0.14600
C49         C  0.36139244  0.21635913  0.62680471     0.86400
C50         C  0.38271964  0.23927341  0.65323309    -0.53900
C51         C  0.36227117  0.25847163  0.67575649     0.09300
C52         C  0.32293705  0.25394202  0.66987019     0.20200
C53         C  0.33636753  0.19513170  0.65118236    -0.54600
C54         C  0.31639449  0.21512907  0.67347923     0.09400
C55         C  0.33706497  0.24247286  0.60685706    -0.54100
C56         C  0.31711723  0.26186090  0.62992645     0.10000
H57         H  0.41119269  0.23981666  0.65436595     0.14500
H58         H  0.30654932  0.26995604  0.68837944     0.00200
H59         H  0.33469644  0.16702625  0.65074859     0.14800
H60         H  0.33575211  0.24615773  0.57786569     0.14600
C61         C  0.19844092  0.20850511  0.79576635     0.86400
C62         C  0.17782700  0.23529938  0.77293909    -0.53900
C63         C  0.19890584  0.25681279  0.75326035     0.09300
C64         C  0.23807127  0.25006437  0.75804533     0.20200
C65         C  0.22264283  0.18976578  0.76808965    -0.54600
C66         C  0.24304777  0.21190323  0.74860384     0.06600
C67         C  0.22416614  0.23044068  0.81877849    -0.54100
C68         C  0.24450819  0.25218721  0.79872773     0.10000
H69         H  0.14938520  0.23686873  0.77234031     0.14500
H70         H  0.25503392  0.26779179  0.74197169     0.00200
H71         H  0.22475809  0.16201704  0.76442325     0.14800
H72         H  0.22601876  0.22893308  0.84804783     0.14600
C73         C  0.20142177  0.38073941  0.63909058     0.86400
C74         C  0.18000574  0.35523955  0.66278089    -0.53900
C75         C  0.20037229  0.33309219  0.68241053     0.09300
C76         C  0.23973080  0.33802752  0.67680125     0.20200
C77         C  0.22679706  0.39886299  0.66611052    -0.54600
C78         C  0.24654840  0.37607038  0.68556681     0.09400
C79         C  0.22576623  0.35736986  0.61604888    -0.54100
C80         C  0.24546794  0.33506755  0.63605740     0.10000
H81         H  0.15153352  0.35491205  0.66390767     0.14500
H82         H  0.25611488  0.31979115  0.69286072     0.00200
H83         H  0.22982783  0.42654925  0.66961733     0.14800
H84         H  0.22716639  0.35837594  0.58672552     0.14600
C85         C  0.36548082  0.36564760  0.80607578     0.86400
C86         C  0.34021962  0.34065164  0.82631625    -0.53900
C87         C  0.31919639  0.32218257  0.80351580     0.09300
C88         C  0.32492655  0.32983854  0.76346558     0.20200
C89         C  0.38551789  0.34193465  0.77942315    -0.54600
C90         C  0.36399532  0.32360346  0.75716191     0.09400
C91         C  0.34117778  0.38796506  0.78203961    -0.54100
C92         C  0.32013753  0.36893583  0.75992158     0.10000
H93         H  0.33889187  0.33702676  0.85530416     0.14500
H94         H  0.30763550  0.31455734  0.74515907     0.00200
H95         H  0.41393316  0.34026573  0.77796941     0.14800
H96         H  0.34079147  0.41611850  0.78250932     0.14600
N97         N  0.46116173  0.50238254  0.00675731    -0.06200
N98         N  0.43695879  0.47858581  0.01274713    -0.58400
N99         N  0.48559327  0.58123325  0.03379189    -0.05900
N100        N  0.47840307  0.60516350  0.05826477    -0.60500
N101        N  0.46198591  0.58174050  0.00784924    -0.05500
N102        N  0.43856147  0.60619230  0.01378388    -0.58300
N103        N  0.48498364  0.50195552  0.03247513    -0.05200
N104        N  0.47737230  0.47792874  0.05662080    -0.60800
C105        C  0.44749788  0.46339373  0.04383698     0.95900
C106        C  0.44918262  0.62069244  0.04516833     0.95700
N107        N  0.59295459  0.58063085  0.00892670    -0.06400
N108        N  0.61700846  0.60435600  0.01541065    -0.58900
N109        N  0.56800721  0.50121827  0.03274110    -0.04500
N110        N  0.57484087  0.47693690  0.05684577    -0.60200
N111        N  0.59205394  0.50125078  0.00720282    -0.06500
N112        N  0.61557450  0.47686343  0.01324390    -0.59200
N113        N  0.56907079  0.58049228  0.03460824    -0.04200
N114        N  0.57670872  0.60399445  0.05944587    -0.60300
Mn115      Mn  0.52691053  0.54125063  0.03458429     1.18400
C116        C  0.60654468  0.61884337  0.04685083     0.98000
C117        C  0.60441381  0.46177658  0.04416195     0.98700
N118        N  0.46250670  0.58307869  0.92343414    -0.06500
N119        N  0.43886774  0.60736790  0.91761569    -0.62800
N120        N  0.48658526  0.50419305  0.89643578    -0.05300
N121        N  0.48053172  0.47955342  0.87243909    -0.63500
N122        N  0.46260029  0.50357894  0.92201190    -0.06000
N123        N  0.43993415  0.47837693  0.91621657    -0.63100
N124        N  0.48663917  0.58352329  0.89802643    -0.04900
N125        N  0.47973268  0.60798734  0.87414709    -0.63700
Mn126      Mn  0.46115688  0.54267055  0.96495028     1.10700
C127        C  0.45001839  0.62280546  0.88691803     0.99200
C128        C  0.45151632  0.46353717  0.88534241     0.99300
N129        N  0.59296414  0.50327699  0.92221563    -0.06000
N130        N  0.61677864  0.47938488  0.91543047    -0.61400
N131        N  0.56962286  0.58342174  0.89864350    -0.05300
N132        N  0.57700913  0.60798224  0.87500420    -0.58100
N133        N  0.59345330  0.58268054  0.92435270    -0.06600
N134        N  0.61737630  0.60684622  0.91893245    -0.60900
N135        N  0.56941126  0.50421133  0.89626021    -0.05600
N136        N  0.57690747  0.48109940  0.87103305    -0.58100
Mn137      Mn  0.59368122  0.54189159  0.96570329     1.20200
Mn138      Mn  0.52800902  0.54390542  0.89616042     1.10100
Cl139      Cl  0.52744601  0.54242791  0.96536914    -0.86100
C140        C  0.60637882  0.46564255  0.88356122     0.96200
C141        C  0.60672009  0.62254529  0.88817480     0.96000
C142        C  0.36114625  0.71722826  0.12442941     0.86400
C143        C  0.33733885  0.74351527  0.10411519    -0.53900
C144        C  0.31695728  0.76275882  0.12687448     0.09300
C145        C  0.32184284  0.75450173  0.16690283     0.20200
C146        C  0.38193638  0.73982334  0.15151780    -0.54600
C147        C  0.36107581  0.75888287  0.17370862     0.09400
C148        C  0.33552234  0.69583439  0.14796016    -0.54100
C149        C  0.31513869  0.71564337  0.17001009     0.10000
H150        H  0.33656278  0.74739879  0.07513777     0.14500
H151        H  0.30510494  0.77040859  0.18517015     0.00200
H152        H  0.41038365  0.74026615  0.15329102     0.14800
H153        H  0.33385535  0.66773189  0.14726208     0.14600
C154        C  0.20075609  0.88092854  0.13460294     0.86400
C155        C  0.17916559  0.85492883  0.15739687    -0.53900
C156        C  0.19934816  0.83283293  0.17723654     0.09300
C157        C  0.23878208  0.83828783  0.17258223     0.20200
C158        C  0.22547796  0.89907471  0.16213245    -0.54600
C159        C  0.24508284  0.87635919  0.18178406     0.09400
C160        C  0.22589149  0.85817083  0.11173987    -0.54100
C161        C  0.24535197  0.83581815  0.13192330     0.10000
H162        H  0.15067992  0.85424943  0.15781298     0.14500
H163        H  0.25505012  0.82007352  0.18878701     0.00200
H164        H  0.22850247  0.92684482  0.16523646     0.14800
H165        H  0.22811888  0.85962274  0.08249704     0.14600
C166        C  0.19545291  0.70805089  0.29044842     0.86400
C167        C  0.17505951  0.73447871  0.26690725    -0.53900
C168        C  0.19637301  0.75595268  0.24738210     0.09300
C169        C  0.23547316  0.74955463  0.25297930     0.20200
C170        C  0.22027657  0.68923966  0.26338269    -0.54600
C171        C  0.24086234  0.71136298  0.24402839     0.09400
C172        C  0.22067243  0.73050757  0.31363536    -0.54100
C173        C  0.24123631  0.75222997  0.29371577     0.10000
H174        H  0.14662580  0.73588970  0.26580057     0.14500
H175        H  0.25257275  0.76724135  0.23700342     0.00200
H176        H  0.22254908  0.66147097  0.25997028     0.14800
H177        H  0.22201318  0.72936053  0.34294915     0.14600
C178        C  0.36246209  0.86628959  0.30374461     0.86400
C179        C  0.33640414  0.84152038  0.32337560    -0.53900
C180        C  0.31578233  0.82306573  0.30004986     0.09300
C181        C  0.32267310  0.83059063  0.26018806     0.20200
C182        C  0.38293544  0.84223059  0.27776896    -0.54600
C183        C  0.36181475  0.82400596  0.25500792     0.09400
C184        C  0.33900427  0.88867305  0.27891645    -0.54100
C185        C  0.31832121  0.86969888  0.25637763     0.10000
H186        H  0.33446138  0.83798674  0.35234766     0.14500
H187        H  0.30574161  0.81539455  0.24144462     0.00200
H188        H  0.41135714  0.84025735  0.27709707     0.14800
H189        H  0.33877458  0.91682766  0.27931168     0.14600
N190        N  0.46240818  0.08080139  0.42328380    -0.06200
N191        N  0.43908457  0.10539243  0.41740788    -0.58400
N192        N  0.48655909  0.00144060  0.39739355    -0.05900
N193        N  0.47953753  0.97744374  0.37290852    -0.60500
N194        N  0.46255877  0.00122068  0.42297243    -0.05500
N195        N  0.43895893  0.97693188  0.41664943    -0.58300
N196        N  0.48651768  0.08086003  0.39781912    -0.05200
N197        N  0.47990305  0.10535461  0.37387154    -0.60800
C198        C  0.45039050  0.12059322  0.38661436     0.95900
C199        C  0.44993312  0.96216823  0.38547135     0.95700
N200        N  0.59371720  0.00190023  0.42366238    -0.06400
N201        N  0.61771498  0.97800256  0.41739373    -0.58900
N202        N  0.56959658  0.08126101  0.39804479    -0.04500
N203        N  0.57660392  0.10558525  0.37396693    -0.60200
N204        N  0.59329663  0.08150039  0.42389841    -0.06500
N205        N  0.61667289  0.10613730  0.41819074    -0.59200
N206        N  0.56986816  0.00179443  0.39794448    -0.04200
N207        N  0.57730952  0.97790481  0.37350653    -0.60300
Mn208      Mn  0.52812748  0.04130844  0.39665116     1.18400
C209        C  0.60709963  0.96310097  0.38613641     0.98000
C210        C  0.60588867  0.12106929  0.38706496     0.98700
N211        N  0.46251351  0.00115687  0.50791311    -0.06500
N212        N  0.43937459  0.97637999  0.51384029    -0.62800
N213        N  0.48541857  0.08086719  0.53383987    -0.05300
N214        N  0.47790491  0.10477518  0.55823118    -0.63500
N215        N  0.46162190  0.08073033  0.50807519    -0.06000
N216        N  0.43766627  0.10471959  0.51416794    -0.63100
N217        N  0.48632894  0.00162064  0.53365089    -0.04900
N218        N  0.47972444  0.97735885  0.55782553    -0.63700
Mn219      Mn  0.46135520  0.04094710  0.46554781     1.10700
C220        C  0.45055376  0.96165969  0.54492829     0.99200
C221        C  0.44821966  0.11963421  0.54542435     0.99300
N222        N  0.59264883  0.08146911  0.50864166    -0.06000
N223        N  0.61617432  0.10582778  0.51472826    -0.61400
N224        N  0.56915660  0.00204050  0.53437837    -0.05300
N225        N  0.57621364  0.97803760  0.55878024    -0.58100
N226        N  0.59311813  0.00191321  0.50876686    -0.06600
N227        N  0.61677797  0.97771076  0.51502271    -0.60900
N228        N  0.56865891  0.08142559  0.53422048    -0.05600
N229        N  0.57562158  0.10560031  0.55851835    -0.58100
Mn230      Mn  0.59404745  0.04166303  0.46625866     1.20200
Mn231      Mn  0.52736966  0.04154011  0.53515983     1.10100
Cl232      Cl  0.52772042  0.04134626  0.46589618    -0.86100
C233        C  0.60518812  0.12078718  0.54577085     0.96200
C234        C  0.60585709  0.96289018  0.54617509     0.96000
C235        C  0.69286860  0.36862741  0.80244312     0.86400
C236        C  0.71869895  0.38941982  0.77859430    -0.53900
C237        C  0.73891910  0.36904471  0.75692442     0.09300
C238        C  0.73183178  0.33033476  0.76058925     0.20200
C239        C  0.67183202  0.34590245  0.77560697    -0.54600
C240        C  0.69258215  0.32629728  0.75374337     0.09400
C241        C  0.71637073  0.34226703  0.82309584    -0.54100
C242        C  0.73664442  0.32257563  0.80069886     0.10000
H243        H  0.72074461  0.41750234  0.77894059     0.14500
H244        H  0.74847022  0.31403207  0.74260232     0.00200
H245        H  0.64339015  0.34572718  0.77376855     0.14800
H246        H  0.71706093  0.33867195  0.85211476     0.14600
C247        C  0.86021839  0.37477559  0.63816981     0.86400
C248        C  0.83497986  0.39352471  0.66474054    -0.53900
C249        C  0.81454181  0.37139141  0.68415382     0.09300
C250        C  0.82041001  0.33315180  0.67560808     0.20200
C251        C  0.88074958  0.34875907  0.66196241    -0.54600
C252        C  0.85957507  0.32722321  0.68148592     0.09400
C253        C  0.83537720  0.35197037  0.61488856    -0.54100
C254        C  0.81493183  0.33015213  0.63482835     0.10000
H255        H  0.83221754  0.42134331  0.66747814     0.14500
H256        H  0.80338690  0.31543626  0.69162593     0.00200
H257        H  0.90919193  0.34776052  0.66336287     0.14800
H258        H  0.83398476  0.35310190  0.58557983     0.14600
C259        C  0.69356226  0.21647705  0.62626513     0.86400
C260        C  0.71693023  0.19485763  0.65190324    -0.53900
C261        C  0.73730426  0.21454281  0.67409677     0.09300
C262        C  0.73268136  0.25352430  0.66919829     0.20200
C263        C  0.67269761  0.24104261  0.65132309    -0.54600
C264        C  0.69341698  0.25997328  0.67378104     0.09400
C265        C  0.71966410  0.24085909  0.60619209    -0.54100
C266        C  0.73993684  0.26001958  0.62919624     0.10000
H267        H  0.71740644  0.16670615  0.65220552     0.14500
H268        H  0.74933097  0.26930301  0.68767782     0.00200
H269        H  0.64425596  0.24284116  0.65164630     0.14800
H270        H  0.72199512  0.24357305  0.57715646     0.14600
C271        C  0.85424280  0.20516554  0.79704326     0.86400
C272        C  0.82965912  0.18679356  0.76947686    -0.53900
C273        C  0.81049983  0.20934796  0.74918122     0.09300
C274        C  0.81704923  0.24746960  0.75775205     0.20200
C275        C  0.87632570  0.23052823  0.77395004    -0.54600
C276        C  0.85657001  0.25243899  0.75347059     0.09400
C277        C  0.82911354  0.22861054  0.81914773    -0.54100
C278        C  0.80997048  0.25069807  0.79824954     0.10000
H279        H  0.82632538  0.15906508  0.76660964     0.14500
H280        H  0.80113327  0.26551778  0.74097951     0.00200
H281        H  0.90482112  0.23088103  0.77374783     0.14800
H282        H  0.82661220  0.22764619  0.84839129     0.14600
C283        C  0.36243572  0.71770382  0.80531146     0.86400
C284        C  0.33784570  0.69571355  0.78126162    -0.53900
C285        C  0.31724712  0.71510089  0.75908837     0.09300
C286        C  0.32279065  0.75411219  0.76249299     0.20200
C287        C  0.38303789  0.74093811  0.77866950    -0.54600
C288        C  0.36198488  0.75946371  0.75624263     0.09400
C289        C  0.33774114  0.74339451  0.82538029    -0.54100
C290        C  0.31712769  0.76217737  0.80249280     0.10000
H291        H  0.33694826  0.66757332  0.78176207     0.14500
H292        H  0.30590209  0.76964204  0.74406429     0.00200
H293        H  0.41147780  0.74228366  0.77737340     0.14800
H294        H  0.33694331  0.74746175  0.85435656     0.14600
C295        C  0.36289173  0.86739537  0.62707280     0.86400
C296        C  0.33959978  0.88992490  0.65201161    -0.53900
C297        C  0.31898034  0.87100546  0.67463609     0.09300
C298        C  0.32316474  0.83188565  0.67069683     0.20200
C299        C  0.38339222  0.84334975  0.65292012    -0.54600
C300        C  0.36230185  0.82520279  0.67570473     0.09400
C301        C  0.33672182  0.84278081  0.60751185    -0.54100
C302        C  0.31616770  0.82444466  0.63082606     0.10000
H303        H  0.33948257  0.91808058  0.65167854     0.14500
H304        H  0.30624463  0.81670445  0.68943550     0.00200
H305        H  0.41181319  0.84130272  0.65345483     0.14800
H306        H  0.33457090  0.83917052  0.57857041     0.14600
C307        C  0.19785264  0.70792537  0.63932077     0.86400
C308        C  0.22258776  0.73090244  0.61621719    -0.53900
C309        C  0.24297223  0.75261887  0.63633004     0.09300
C310        C  0.23761989  0.74938464  0.67707988     0.20200
C311        C  0.22311672  0.68905042  0.66569039    -0.54600
C312        C  0.24350259  0.71108720  0.68525547     0.09400
C313        C  0.17730683  0.73388183  0.66337813    -0.54100
C314        C  0.19848853  0.75541310  0.68304210     0.10000
H315        H  0.22377041  0.73013047  0.58687926     0.14500
H316        H  0.25467137  0.76703675  0.69317601     0.00200
H317        H  0.22596900  0.66124958  0.66830792     0.14800
H318        H  0.14886570  0.73511671  0.66450439     0.14600
C319        C  0.20104817  0.88114457  0.79601554     0.86400
C320        C  0.22571145  0.85781507  0.81880084    -0.53900
C321        C  0.24545188  0.83568305  0.79843338     0.09300
C322        C  0.23944307  0.83878838  0.75777776     0.20200
C323        C  0.22620153  0.89944344  0.76901063    -0.54600
C324        C  0.24594953  0.87692658  0.74929225     0.09400
C325        C  0.17968103  0.85542561  0.77241103    -0.54100
C326        C  0.20010330  0.83340944  0.75253562     0.10000
H327        H  0.22725219  0.85867739  0.84811770     0.14500
H328        H  0.25588656  0.82075911  0.74147702     0.00200
H329        H  0.22941058  0.92714815  0.76593609     0.14800
H330        H  0.15120627  0.85467488  0.77175193     0.14600
C331        C  0.69382439  0.86663520  0.30409968     0.86400
C332        C  0.71849672  0.88856733  0.28009926    -0.53900
C333        C  0.73946283  0.86913652  0.25823991     0.09300
C334        C  0.73418983  0.83013505  0.26188356     0.20200
C335        C  0.67366159  0.84298857  0.27731830    -0.54600
C336        C  0.69513437  0.82437703  0.25521532     0.09400
C337        C  0.71850148  0.84121578  0.32453907    -0.54100
C338        C  0.73953823  0.82243293  0.30196702     0.10000
H339        H  0.71908177  0.91671790  0.28030000     0.14500
H340        H  0.75140180  0.81461342  0.24371804     0.00200
H341        H  0.64526002  0.84134485  0.27574157     0.14800
H342        H  0.71900936  0.83751384  0.35358465     0.14600
C343        C  0.85898690  0.70705389  0.29406957     0.86400
C344        C  0.83380732  0.72951875  0.31723739    -0.53900
C345        C  0.81336469  0.75129636  0.29727154     0.09300
C346        C  0.81931148  0.74875143  0.25653323     0.20200
C347        C  0.83425160  0.68839362  0.26682177    -0.54600
C348        C  0.81386264  0.71059804  0.24745935     0.09400
C349        C  0.87958690  0.73346793  0.27062599    -0.54100
C350        C  0.85846267  0.75505013  0.25104713     0.10000
H351        H  0.83237621  0.72828092  0.34654502     0.14500
H352        H  0.80234319  0.76648572  0.24050096     0.00200
H353        H  0.83200684  0.66068584  0.26300469     0.14800
H354        H  0.90803124  0.73463663  0.26943934     0.14600
C355        C  0.69543727  0.71534620  0.12596358     0.86400
C356        C  0.72052106  0.69421448  0.15026614    -0.53900
C357        C  0.74113973  0.71430548  0.17181089     0.09300
C358        C  0.73515454  0.75316506  0.16757088     0.20200
C359        C  0.67488866  0.73899598  0.15232332    -0.54600
C360        C  0.69598481  0.75837359  0.17406773     0.09400
C361        C  0.71979050  0.74081069  0.10507003    -0.54100
C362        C  0.74039172  0.76033472  0.12737513     0.10000
H363        H  0.72165080  0.66608071  0.15046215     0.14500
H364        H  0.75206985  0.76926096  0.18549087     0.00200
H365        H  0.64644971  0.73990424  0.15396465     0.14800
H366        H  0.72056133  0.74414326  0.07601390     0.14600
C367        C  0.85667226  0.87833511  0.13568496     0.86400
C368        C  0.83194958  0.85553543  0.11241000    -0.53900
C369        C  0.81193677  0.83330705  0.13227048     0.09300
C370        C  0.81775011  0.83584665  0.17307537     0.20200
C371        C  0.83161107  0.89652105  0.16289404    -0.54600
C372        C  0.81161298  0.87393483  0.18222281     0.09400
C373        C  0.87772276  0.85227832  0.15902373    -0.54100
C374        C  0.85704885  0.83025976  0.17853915     0.10000
H375        H  0.83059089  0.85677843  0.08309735     0.14500
H376        H  0.80110696  0.81775433  0.18905078     0.00200
H377        H  0.82888129  0.92419670  0.16666746     0.14800
H378        H  0.90618619  0.85164013  0.16017880     0.14600
C379        C  0.69453160  0.71858281  0.80749393     0.86400
C380        C  0.71951149  0.74388065  0.82773826    -0.53900
C381        C  0.74018188  0.76274505  0.80491259     0.09300
C382        C  0.73435677  0.75511977  0.76486139     0.20200
C383        C  0.67406068  0.74229603  0.78114454    -0.54600
C384        C  0.69522392  0.76087616  0.75878135     0.09400
C385        C  0.71886929  0.69667922  0.78306469    -0.54100
C386        C  0.73957966  0.71612358  0.76099799     0.10000
H387        H  0.72040726  0.74759662  0.85677242     0.14500
H388        H  0.75133227  0.77068581  0.74652126     0.00200
H389        H  0.64563385  0.74381481  0.77989019     0.14800
H390        H  0.71947830  0.66852958  0.78320376     0.14600
C391        C  0.85773792  0.70644875  0.63927343     0.86400
C392        C  0.87863615  0.73238036  0.66309249    -0.53900
C393        C  0.85778021  0.75445262  0.68242507     0.09300
C394        C  0.81856513  0.74893659  0.67653551     0.20200
C395        C  0.83232737  0.68826826  0.66615409    -0.54600
C396        C  0.81217792  0.71086588  0.68535842     0.09400
C397        C  0.83336521  0.72956023  0.61591755    -0.54100
C398        C  0.81316386  0.75173762  0.63575855     0.10000
H399        H  0.90708948  0.73312175  0.66441489     0.14500
H400        H  0.80181414  0.76700904  0.69244831     0.00200
H401        H  0.82965765  0.66061543  0.67003141     0.14800
H402        H  0.83233153  0.72847469  0.58658391     0.14600
C403        C  0.69379273  0.86742857  0.62771323     0.86400
C404        C  0.71917626  0.84232249  0.60762774    -0.53900
C405        C  0.74005560  0.82377151  0.63052298     0.09300
C406        C  0.73398721  0.83146253  0.67052203     0.20200
C407        C  0.67354513  0.84364588  0.65416287    -0.54600
C408        C  0.69488265  0.82532164  0.67658163     0.09400
C409        C  0.71790729  0.88967655  0.65208686    -0.54100
C410        C  0.73880329  0.87052856  0.67423438     0.10000
H411        H  0.72038934  0.83855407  0.57863267     0.14500
H412        H  0.75109281  0.81615607  0.68894565     0.00200
H413        H  0.64512421  0.84199344  0.65548051     0.14800
H414        H  0.71830399  0.91782885  0.65178513     0.14600
C415        C  0.85726474  0.88004443  0.79529707     0.86400
C416        C  0.87810424  0.85372886  0.77202157    -0.53900
C417        C  0.85724187  0.83177528  0.75259967     0.09300
C418        C  0.81798873  0.83771825  0.75804972     0.20200
C419        C  0.83228585  0.89835309  0.76817389    -0.54600
C420        C  0.81205650  0.87584030  0.74892419     0.09400
C421        C  0.83235183  0.85752005  0.81863052    -0.54100
C422        C  0.81221138  0.83534133  0.79884459     0.10000
H423        H  0.90656314  0.85269576  0.77106101     0.14500
H424        H  0.80118539  0.81966963  0.74216423     0.00200
H425        H  0.82959841  0.92608297  0.76474239     0.14800
H426        H  0.83095248  0.85887873  0.84793844     0.14600
N427        N  0.06715387  0.08530023  0.03528116    -0.06200
N428        N  0.09046443  0.09245955  0.06063314    -0.58400
N429        N  0.98671880  0.10914298  0.01044523    -0.05900
N430        N  0.96365823  0.13347288  0.01866658    -0.60500
N431        N  0.98663125  0.08468611  0.03525366    -0.05500
N432        N  0.96336408  0.09188757  0.06071166    -0.58300
N433        N  0.06682765  0.10988251  0.01061634    -0.05200
N434        N  0.08965847  0.13440559  0.01892530    -0.60800
C435        C  0.10444191  0.12305557  0.05001562     0.95900
C436        C  0.94902606  0.12229883  0.04992984     0.95700
N437        N  0.98731215  0.08511838  0.89921562    -0.06400
N438        N  0.96356197  0.09205482  0.87423924    -0.58900
N439        N  0.06712364  0.11049020  0.92438229    -0.04500
N440        N  0.08966533  0.13537149  0.91634249    -0.60200
N441        N  0.06769988  0.08619437  0.89934073    -0.06500
N442        N  0.09079402  0.09397204  0.87399260    -0.59200
N443        N  0.98711938  0.10926630  0.92441363    -0.04200
N444        N  0.96345912  0.13318182  0.91692380    -0.60300
Mn445      Mn  0.02696143  0.11045213  0.96745831     1.18400
C446        C  0.94874716  0.12199635  0.88572798     0.98000
C447        C  0.10447302  0.12458767  0.88499488     0.98700
N448        N  0.98760374  0.00208809  0.03422731    -0.06500
N449        N  0.96438871  0.99416462  0.05943474    -0.62800
N450        N  0.06821742  0.97910782  0.00913526    -0.05300
N451        N  0.09173720  0.95507901  0.01659943    -0.63500
N452        N  0.06797121  0.00309716  0.03447129    -0.06000
N453        N  0.09147082  0.99587791  0.05961350    -0.63100
N454        N  0.98827517  0.97791455  0.00906734    -0.04900
N455        N  0.96574290  0.95298386  0.01684257    -0.63700
Mn456      Mn  0.02729641  0.04378196  0.03561234     1.10700
C457        C  0.95079252  0.96358399  0.04815221     0.99200
C458        C  0.10624420  0.96595936  0.04800528     0.99300
N459        N  0.06897876  0.00361787  0.89856045    -0.06000
N460        N  0.09263342  0.99644200  0.87345954    -0.61400
N461        N  0.98862863  0.97845029  0.92303632    -0.05300
N462        N  0.96586634  0.95384648  0.91487055    -0.58100
N463        N  0.98836403  0.00283336  0.89817363    -0.06600
N464        N  0.96521305  0.99538348  0.87273058    -0.60900
N465        N  0.06870104  0.97922085  0.92342043    -0.05600
N466        N  0.09191277  0.95493429  0.91560688    -0.58100
Mn467      Mn  0.02812684  0.04446593  0.89799801     1.20200
Mn468      Mn  0.02842737  0.97799513  0.96616340     1.10100
Cl469      Cl  0.02768505  0.04420423  0.96680321    -0.86100
C470        C  0.10690685  0.96608051  0.88455220     0.96200
C471        C  0.95122219  0.96484970  0.88358587     0.96000
C472        C  0.69240131  0.21940609  0.30748500     0.86400
C473        C  0.71684715  0.24544698  0.32759735    -0.53900
C474        C  0.73745716  0.26434043  0.30462135     0.09300
C475        C  0.73206616  0.25601695  0.26469113     0.20200
C476        C  0.67181501  0.24233156  0.28053197    -0.54600
C477        C  0.69288038  0.26108135  0.25820317     0.09400
C478        C  0.71750360  0.19762591  0.28376120    -0.54100
C479        C  0.73811585  0.21706945  0.26163551     0.10000
H480        H  0.71781430  0.24932546  0.35658828     0.14500
H481        H  0.74896167  0.27158097  0.24626831     0.00200
H482        H  0.64337045  0.24335065  0.27907189     0.14800
H483        H  0.71884010  0.16951077  0.28456855     0.14600
C484        C  0.85594923  0.20734801  0.13970485     0.86400
C485        C  0.87704202  0.23450286  0.16178244    -0.53900
C486        C  0.85634153  0.25636947  0.18156726     0.09300
C487        C  0.81712258  0.24960122  0.17758575     0.20200
C488        C  0.83218637  0.18909512  0.16807911    -0.54600
C489        C  0.81218512  0.21159906  0.18761298     0.09400
C490        C  0.82985089  0.22906375  0.11690540    -0.54100
C491        C  0.81000637  0.25123400  0.13703857     0.10000
H492        H  0.90548942  0.23606945  0.16178241     0.14500
H493        H  0.80048965  0.26760762  0.19371583     0.00200
H494        H  0.82998799  0.16137885  0.17199554     0.14800
H495        H  0.82757081  0.22729643  0.08768296     0.14600
C496        C  0.69219234  0.36819624  0.12768530     0.86400
C497        C  0.71720604  0.34241833  0.10818216    -0.53900
C498        C  0.73782338  0.32413079  0.13148869     0.09300
C499        C  0.73196896  0.33274989  0.17132026     0.20200
C500        C  0.67167566  0.34515092  0.15463864    -0.54600
C501        C  0.69280678  0.32704824  0.17744783     0.09400
C502        C  0.71652995  0.39072817  0.15153393    -0.54100
C503        C  0.73720648  0.37186216  0.17416165     0.10000
H504        H  0.71818411  0.33784754  0.07929997     0.14500
H505        H  0.74891934  0.31760732  0.19003789     0.00200
H506        H  0.64324383  0.34350323  0.15569632     0.14800
H507        H  0.71719949  0.41886159  0.15057055     0.14600
C508        C  0.85564451  0.38126854  0.29525422     0.86400
C509        C  0.87644702  0.35555807  0.27118225    -0.53900
C510        C  0.85559458  0.33383548  0.25148258     0.09300
C511        C  0.81632482  0.33944829  0.25734945     0.20200
C512        C  0.83051066  0.39996449  0.26847959    -0.54600
C513        C  0.81022988  0.37768099  0.24892602     0.09400
C514        C  0.83101693  0.35814359  0.31822574    -0.54100
C515        C  0.81068584  0.33635215  0.29813737     0.10000
H516        H  0.90490328  0.35471036  0.26994497     0.14500
H517        H  0.79952296  0.32161072  0.24120712     0.00200
H518        H  0.82817966  0.42768934  0.26491046     0.14800
H519        H  0.82984534  0.35900384  0.34756548     0.14600
N520        N  0.06895871  0.50124830  0.39887515    -0.06200
N521        N  0.09195353  0.49371114  0.37328449    -0.58400
N522        N  0.98906854  0.47650333  0.42416363    -0.05900
N523        N  0.96616421  0.45194859  0.41605417    -0.60500
N524        N  0.98849633  0.50108021  0.39946934    -0.05500
N525        N  0.96494170  0.49387460  0.37435281    -0.58300
N526        N  0.06906142  0.47704404  0.42395772    -0.05200
N527        N  0.09196099  0.45257354  0.41582330    -0.60800
C528        C  0.10627485  0.46338319  0.38429978     0.95900
C529        C  0.95105401  0.46327955  0.38510254     0.95700
N530        N  0.98926687  0.50042474  0.53558404    -0.06400
N531        N  0.96687556  0.49219177  0.56150632    -0.58900
N532        N  0.06955192  0.47700398  0.51015122    -0.04500
N533        N  0.09275599  0.45275087  0.51814079    -0.60200
N534        N  0.06967407  0.50142282  0.53506384    -0.06500
N535        N  0.09320703  0.49439725  0.56025215    -0.59200
N536        N  0.98957516  0.47620067  0.51046863    -0.04200
N537        N  0.96755211  0.45103219  0.51891255    -0.60300
Mn538      Mn  0.02931509  0.47602054  0.46716430     1.18400
C539        C  0.95333090  0.46142061  0.55065689     0.98000
C540        C  0.10757483  0.46407936  0.54927434     0.98700
N541        N  0.98835887  0.58378227  0.39912899    -0.06500
N542        N  0.96570079  0.59162451  0.37335364    -0.62800
N543        N  0.06855289  0.60847153  0.42343497    -0.05300
N544        N  0.09026428  0.63373234  0.41420720    -0.63500
N545        N  0.06865084  0.58398405  0.39857220    -0.06000
N546        N  0.09062869  0.59202070  0.37222409    -0.63100
N547        N  0.98868428  0.60820011  0.42404618    -0.04900
N548        N  0.96649858  0.63320543  0.41550330    -0.63700
Mn549      Mn  0.02860649  0.54246367  0.39835910     1.10700
C550        C  0.95207050  0.62240623  0.38399331     0.99200
C551        C  0.10413654  0.62300672  0.38235364     0.99300
N552        N  0.06888845  0.58378478  0.53518530    -0.06000
N553        N  0.09164333  0.59159921  0.56088312    -0.61400
N554        N  0.98878314  0.60777904  0.51050568    -0.05300
N555        N  0.96612620  0.63243135  0.51887836    -0.58100
N556        N  0.98848159  0.58331597  0.53535077    -0.06600
N557        N  0.96536677  0.59079330  0.56087734    -0.60900
N558        N  0.06873541  0.60802628  0.51013281    -0.05600
N559        N  0.09117336  0.63287231  0.51849383    -0.58100
Mn560      Mn  0.02901412  0.54224440  0.53602002     1.20200
Mn561      Mn  0.02873646  0.60873214  0.46709226     1.10100
Cl562      Cl  0.02889432  0.54238046  0.46716378    -0.86100
C563        C  0.10551213  0.62218108  0.55004371     0.96200
C564        C  0.95144744  0.62140768  0.55016286     0.96000
C565        C  0.90432958  0.45946665  0.33777861    -0.13500
C566        C  0.92575097  0.44296449  0.36331392     0.08700
C567        C  0.92396119  0.40678915  0.36660041    -0.13500
C568        C  0.90151967  0.38748030  0.34437906    -0.13500
C569        C  0.87971513  0.40379712  0.31873944     0.08700
C570        C  0.88143506  0.44025887  0.31595076    -0.13500
H571        H  0.90528168  0.48736843  0.33466413     0.12700
H572        H  0.94050873  0.39331484  0.38579319     0.12700
H573        H  0.90114922  0.35953790  0.34718440     0.12700
H574        H  0.86578466  0.45450755  0.29683293     0.12700
C575        C  0.78465859  0.38775354  0.22224432    -0.13400
C576        C  0.76227502  0.38601216  0.19930749    -0.15000
C577        C  0.76257434  0.29766025  0.12121304    -0.13400
C578        C  0.78450616  0.27521919  0.12289439    -0.15000
C579        C  0.86842374  0.28379476  0.20520437    -0.13400
C580        C  0.86790400  0.30744810  0.22668506    -0.15000
C581        C  0.68078018  0.28396163  0.23022290    -0.13400
C582        C  0.68077472  0.30411704  0.20542748    -0.15000
C583        C  0.78523821  0.31231473  0.31261933    -0.13400
C584        C  0.76277068  0.29036009  0.31501617    -0.15000
C585        C  0.76413244  0.20354904  0.23719795    -0.13400
C586        C  0.78689703  0.20184366  0.21467779    -0.15000
C587        C  0.91829476  0.17814539  0.06404235    -0.13500
C588        C  0.92420602  0.14306614  0.07202756     0.08700
C589        C  0.90775043  0.12864456  0.10245363    -0.13500
C590        C  0.88568496  0.14877678  0.12434403    -0.13500
C591        C  0.87954247  0.18407547  0.11644603     0.08700
C592        C  0.89675111  0.19844155  0.08623325    -0.13500
H593        H  0.93098254  0.19018879  0.04105245     0.12700
H594        H  0.91219486  0.10177884  0.10957794     0.12700
H595        H  0.87453884  0.13645000  0.14783555     0.12700
H596        H  0.89340536  0.22558822  0.07966832     0.12700
C597        C  0.88649082  0.93872907  0.81068239    -0.13500
C598        C  0.88125736  0.90319705  0.81804411     0.08700
C599        C  0.89984438  0.88843307  0.84712455    -0.13500
C600        C  0.92170499  0.90864028  0.86899126    -0.13500
C601        C  0.92650359  0.94400215  0.86169059     0.08700
C602        C  0.90888136  0.95878154  0.83221205    -0.13500
H603        H  0.87432230  0.95134230  0.78792475     0.12700
H604        H  0.89726380  0.86107309  0.85309385     0.12700
H605        H  0.93542874  0.89637071  0.89119262     0.12700
H606        H  0.91254707  0.98589792  0.82564262     0.12700
C607        C  0.76382703  0.88432210  0.69957855    -0.13400
C608        C  0.78630056  0.88575265  0.72241362    -0.15000
C609        C  0.78808982  0.77612650  0.62131645    -0.13400
C610        C  0.76570257  0.79820827  0.61975135    -0.15000
C611        C  0.86978292  0.78119184  0.70694166    -0.13400
C612        C  0.86946042  0.80484900  0.72841471    -0.15000
C613        C  0.88341370  0.64673921  0.62037945    -0.13500
C614        C  0.88165348  0.68314099  0.61633505     0.08700
C615        C  0.90327637  0.69857309  0.58995259    -0.13500
C616        C  0.92525426  0.67848818  0.56797958    -0.13500
C617        C  0.92687368  0.64238032  0.57226332     0.08700
C618        C  0.90588437  0.62675767  0.59878332    -0.13500
H619        H  0.86815537  0.63310970  0.64031884     0.12700
H620        H  0.90302346  0.72641741  0.58624693     0.12700
H621        H  0.94152027  0.69134371  0.54806285     0.12700
H622        H  0.90677790  0.59896114  0.60279221     0.12700
C623        C  0.68308759  0.80281846  0.70503751    -0.13400
C624        C  0.68321078  0.78335773  0.73042512    -0.15000
C625        C  0.78664446  0.70113029  0.71219173    -0.13400
C626        C  0.76447697  0.70262106  0.73535030    -0.15000
C627        C  0.76520189  0.78878571  0.81568594    -0.13400
C628        C  0.78722839  0.81112303  0.81359478    -0.15000
C629        C  0.88430028  0.93750858  0.11918489    -0.13500
C630        C  0.88051697  0.90159244  0.11289123     0.08700
C631        C  0.90041620  0.88657885  0.08483279    -0.13500
C632        C  0.92249451  0.90680035  0.06318830    -0.13500
C633        C  0.92599234  0.94248394  0.06963098     0.08700
C634        C  0.90682605  0.95756783  0.09790032    -0.13500
H635        H  0.87086708  0.95056635  0.14089254     0.12700
H636        H  0.89876799  0.85899977  0.07958711     0.12700
H637        H  0.93738946  0.89434828  0.04188296     0.12700
H638        H  0.90934621  0.98498705  0.10369040     0.12700
C639        C  0.78699111  0.80892903  0.11764755    -0.13400
C640        C  0.76505608  0.78645699  0.11594334    -0.15000
C641        C  0.76651963  0.70150099  0.19729694    -0.13400
C642        C  0.78871650  0.70040699  0.22042864    -0.15000
C643        C  0.87012408  0.78132211  0.22586796    -0.13400
C644        C  0.86950325  0.80419473  0.20354521    -0.15000
C645        C  0.88660424  0.64801986  0.31162221    -0.13500
C646        C  0.88308363  0.68410320  0.31710841     0.08700
C647        C  0.90304834  0.69943417  0.34495783    -0.13500
C648        C  0.92479231  0.67938549  0.36720645    -0.13500
C649        C  0.92787653  0.64350643  0.36165500     0.08700
C650        C  0.90876707  0.62813452  0.33350583    -0.13500
H651        H  0.87307912  0.63460411  0.29022353     0.12700
H652        H  0.90157646  0.72710684  0.34968036     0.12700
H653        H  0.93966094  0.69208842  0.38837186     0.12700
H654        H  0.91094212  0.60057183  0.32835899     0.12700
C655        C  0.68389297  0.78143573  0.20196883    -0.13400
C656        C  0.68357520  0.80147042  0.22692978    -0.15000
C657        C  0.76442834  0.88259746  0.23268351    -0.13400
C658        C  0.78643319  0.88379650  0.20935715    -0.15000
C659        C  0.78757258  0.77501320  0.31160061    -0.13400
C660        C  0.76491426  0.79681172  0.31308598    -0.15000
C661        C  0.17387967  0.94048363  0.81340120    -0.13500
C662        C  0.17750473  0.90446303  0.81927454     0.08700
C663        C  0.15763944  0.88939985  0.84729291    -0.13500
C664        C  0.13563948  0.90956399  0.86913795    -0.13500
C665        C  0.13207836  0.94529574  0.86298284     0.08700
C666        C  0.15138311  0.96051213  0.83489565    -0.13500
H667        H  0.18735037  0.95362134  0.79178356     0.12700
H668        H  0.15917168  0.86178740  0.85230151     0.12700
H669        H  0.12072627  0.89697110  0.89032014     0.12700
H670        H  0.14890082  0.98796419  0.82934340     0.12700
C671        C  0.18688369  0.78252330  0.70737157    -0.13400
C672        C  0.18745792  0.80644944  0.72855214    -0.15000
C673        C  0.16805660  0.64948617  0.62442000    -0.13500
C674        C  0.17378967  0.68484580  0.61651196     0.08700
C675        C  0.15582102  0.69927086  0.58683747    -0.13500
C676        C  0.13445343  0.67875603  0.56470886    -0.13500
C677        C  0.12953116  0.64345859  0.57233651     0.08700
C678        C  0.14626127  0.62913727  0.60258683    -0.13500
H679        H  0.17939137  0.63723267  0.64784701     0.12700
H680        H  0.15859569  0.72653494  0.58051612     0.12700
H681        H  0.12128515  0.69071174  0.54197080     0.12700
H682        H  0.14235108  0.60214221  0.60954097     0.12700
C683        C  0.26796482  0.77704440  0.62205683    -0.13400
C684        C  0.29028401  0.79911396  0.62043063    -0.15000
C685        C  0.29441353  0.88511223  0.70022855    -0.13400
C686        C  0.27194107  0.88681319  0.72303085    -0.15000
C687        C  0.26938581  0.70051773  0.71126334    -0.13400
C688        C  0.29199224  0.70156124  0.73392665    -0.15000
C689        C  0.27042111  0.81095201  0.81226550    -0.13400
C690        C  0.29231644  0.78841553  0.81337542    -0.15000
C691        C  0.37422224  0.78198468  0.72811162    -0.13400
C692        C  0.37439257  0.80197118  0.70324147    -0.15000
C693        C  0.89616963  0.19746506  0.84944297    -0.13500
C694        C  0.87732326  0.18216949  0.82079379     0.08700
C695        C  0.88213018  0.14643561  0.81424201    -0.13500
C696        C  0.90485236  0.12682601  0.83574518    -0.13500
C697        C  0.92317456  0.14225086  0.86442552     0.08700
C698        C  0.91839745  0.17770295  0.87128068    -0.13500
H699        H  0.89380521  0.22496624  0.85482539     0.12700
H700        H  0.86955727  0.13334843  0.79198327     0.12700
H701        H  0.90838002  0.09957876  0.82965671     0.12700
H702        H  0.93260041  0.19041849  0.89292077     0.12700
C703        C  0.76221922  0.20122146  0.69980629    -0.13400
C704        C  0.78471982  0.19960216  0.72260131    -0.15000
C705        C  0.78929384  0.30631695  0.62039010    -0.13400
C706        C  0.76634134  0.28482642  0.61855618    -0.15000
C707        C  0.87123450  0.30105308  0.70662487    -0.13400
C708        C  0.87015603  0.27816853  0.72883290    -0.15000
C709        C  0.89152588  0.43278348  0.62530316    -0.13500
C710        C  0.88446419  0.39801561  0.61579247     0.08700
C711        C  0.90170190  0.38422393  0.58530387    -0.13500
C712        C  0.92339119  0.40496957  0.56377571    -0.13500
C713        C  0.92941013  0.43982799  0.57280274     0.08700
C714        C  0.91361522  0.45337144  0.60402465    -0.13500
H715        H  0.88092219  0.44429276  0.64955027     0.12700
H716        H  0.89813076  0.35729937  0.57786780     0.12700
H717        H  0.93584588  0.39353381  0.54029795     0.12700
H718        H  0.91844013  0.47993436  0.61213584     0.12700
C719        C  0.68025532  0.30382290  0.72552561    -0.13400
C720        C  0.68073085  0.28359227  0.70079719    -0.15000
C721        C  0.78403178  0.27477478  0.81144052    -0.13400
C722        C  0.76148377  0.29666980  0.81219901    -0.15000
C723        C  0.78844116  0.38184127  0.71008931    -0.13400
C724        C  0.76533436  0.38132971  0.73228509    -0.15000
C725        C  0.62213327  0.15227073  0.33043542    -0.13500
C726        C  0.62599627  0.14808404  0.36783959     0.08700
C727        C  0.65081604  0.16836401  0.38629608    -0.13500
C728        C  0.67165160  0.19230792  0.36762390    -0.13500
C729        C  0.66842968  0.19610913  0.32986413     0.08700
C730        C  0.64341839  0.17556707  0.31165654    -0.13500
H731        H  0.60351975  0.13663289  0.31545338     0.12700
H732        H  0.65441868  0.16540250  0.41518963     0.12700
H733        H  0.69091079  0.20660140  0.38293811     0.12700
H734        H  0.64068253  0.17722922  0.28255084     0.12700
C735        C  0.62116870  0.93157907  0.60311536    -0.13500
C736        C  0.62627066  0.93650240  0.56594499     0.08700
C737        C  0.65276848  0.91777117  0.54827204    -0.13500
C738        C  0.67407302  0.89470993  0.56744401    -0.13500
C739        C  0.66954487  0.89006946  0.60496053     0.08700
C740        C  0.64288636  0.90909316  0.62244803    -0.13500
H741        H  0.60122587  0.94605228  0.61752536     0.12700
H742        H  0.65741500  0.92136731  0.51961441     0.12700
H743        H  0.69472193  0.88184358  0.55271092     0.12700
H744        H  0.63913517  0.90686566  0.65139026     0.12700
C745        C  0.65644390  0.92052226  0.38286014    -0.13500
C746        C  0.62774120  0.93684660  0.36630844     0.08700
C747        C  0.62030775  0.92951036  0.32997835    -0.13500
C748        C  0.64150855  0.90669793  0.31040700    -0.13500
C749        C  0.66994718  0.88958680  0.32696604     0.08700
C750        C  0.67733968  0.89721461  0.36346440    -0.13500
H751        H  0.66312724  0.92619869  0.41071726     0.12700
H752        H  0.59874736  0.94223581  0.31630890     0.12700
H753        H  0.63586573  0.90278027  0.28200005     0.12700
H754        H  0.69990418  0.88639821  0.37699366     0.12700
C755        C  0.43430106  0.93222492  0.60229578    -0.13500
C756        C  0.43057114  0.93523952  0.56476237     0.08700
C757        C  0.40575023  0.91470011  0.54678456    -0.13500
C758        C  0.38439064  0.89190799  0.56615111    -0.13500
C759        C  0.38713294  0.88957775  0.60407430     0.08700
C760        C  0.41256345  0.90997269  0.62174265    -0.13500
H761        H  0.45307563  0.94806870  0.61682544     0.12700
H762        H  0.40246215  0.91669039  0.51775749     0.12700
H763        H  0.36523368  0.87732340  0.55105076     0.12700
H764        H  0.41518543  0.90906712  0.65090146     0.12700
C765        C  0.65176066  0.16610812  0.54725750    -0.13500
C766        C  0.62567818  0.14718343  0.56533573     0.08700
C767        C  0.62124787  0.15179258  0.60262351    -0.13500
C768        C  0.64326176  0.17422091  0.62167640    -0.13500
C769        C  0.66956529  0.19338598  0.60379291     0.08700
C770        C  0.67336483  0.18910524  0.56616327    -0.13500
H771        H  0.65580330  0.16275745  0.51846165     0.12700
H772        H  0.60161313  0.13715173  0.61728958     0.12700
H773        H  0.63997047  0.17640990  0.65069087     0.12700
H774        H  0.69349302  0.20234973  0.55106274     0.12700
C775        C  0.41273018  0.90856470  0.30906337    -0.13500
C776        C  0.38664563  0.88888298  0.32665957     0.08700
C777        C  0.38278125  0.89274822  0.36435319    -0.13500
C778        C  0.40392241  0.91603618  0.38353413    -0.13500
C779        C  0.42966898  0.93562609  0.36568202     0.08700
C780        C  0.43426627  0.93127627  0.32836721    -0.13500
H781        H  0.41608301  0.90672530  0.28003129     0.12700
H782        H  0.36282937  0.87904205  0.37926396     0.12700
H783        H  0.39978499  0.91908596  0.41234992     0.12700
H784        H  0.45366541  0.94635311  0.31385170     0.12700
C785        C  0.26686807  0.77609240  0.30817338    -0.13400
C786        C  0.28961824  0.79779638  0.31022172    -0.15000
C787        C  0.15254793  0.70024426  0.34249554    -0.13500
C788        C  0.17119764  0.68520469  0.31351365     0.08700
C789        C  0.16636908  0.64943725  0.30701105    -0.13500
C790        C  0.14478621  0.62940311  0.32945169    -0.13500
C791        C  0.12747493  0.64433735  0.35911434     0.08700
C792        C  0.13143770  0.68004146  0.36529507    -0.13500
H793        H  0.15476787  0.72775952  0.34786292     0.12700
H794        H  0.17847629  0.63649097  0.28439550     0.12700
H795        H  0.14170469  0.60205865  0.32357786     0.12700
H796        H  0.11784014  0.69249127  0.38750270     0.12700
C797        C  0.18619962  0.80628399  0.20125639    -0.13400
C798        C  0.18499770  0.78278316  0.22279572    -0.15000
C799        C  0.27099130  0.88588585  0.20830966    -0.13400
C800        C  0.29352317  0.88381814  0.23102579    -0.15000
C801        C  0.16077722  0.89051243  0.08086704    -0.13500
C802        C  0.17730231  0.90430921  0.11176328     0.08700
C803        C  0.16958476  0.93880515  0.12163653    -0.13500
C804        C  0.14698207  0.95902144  0.10060117    -0.13500
C805        C  0.13149480  0.94531009  0.06928756     0.08700
C806        C  0.13870387  0.91089329  0.05956615    -0.13500
H807        H  0.16489255  0.86374128  0.07314666     0.12700
H808        H  0.17987850  0.95020797  0.14609265     0.12700
H809        H  0.14130048  0.98529910  0.10910836     0.12700
H810        H  0.12659950  0.89937956  0.03593159     0.12700
C811        C  0.37350551  0.78107194  0.20212834    -0.13400
C812        C  0.37383406  0.80088118  0.22722602    -0.15000
C813        C  0.28919181  0.70254160  0.19480063    -0.13400
C814        C  0.26648750  0.70115965  0.21743184    -0.15000
C815        C  0.29252839  0.78920796  0.11595457    -0.13400
C816        C  0.27059517  0.81161909  0.11769330    -0.15000
C817        C  0.61985911  0.43176606  0.10154376    -0.13500
C818        C  0.62490348  0.43580231  0.06426416     0.08700
C819        C  0.65144879  0.41682470  0.04698903    -0.13500
C820        C  0.67279575  0.39425138  0.06672590    -0.13500
C821        C  0.66820882  0.39044690  0.10435585     0.08700
C822        C  0.64161436  0.40984851  0.12140146    -0.13500
H823        H  0.59992713  0.44653588  0.11563924     0.12700
H824        H  0.65606980  0.41985011  0.01825341     0.12700
H825        H  0.69349314  0.38110517  0.05233238     0.12700
H826        H  0.63788584  0.40830493  0.15039652     0.12700
C827        C  0.67663153  0.68923052  0.86718465    -0.13500
C828        C  0.67062170  0.69563893  0.83018090     0.08700
C829        C  0.64301035  0.67781567  0.81294455    -0.13500
C830        C  0.62134356  0.65529936  0.83218500    -0.13500
C831        C  0.62754336  0.64890820  0.86890385     0.08700
C832        C  0.65534654  0.66603245  0.88626422    -0.13500
H833        H  0.69838048  0.70086590  0.88140193     0.12700
H834        H  0.63835567  0.68104398  0.78425506     0.12700
H835        H  0.60048325  0.64195764  0.81795620     0.12700
H836        H  0.66097954  0.66109228  0.91450704     0.12700
C837        C  0.62397988  0.64907837  0.10384006    -0.13500
C838        C  0.62746885  0.64494069  0.06638848     0.08700
C839        C  0.65291332  0.66430310  0.04785365    -0.13500
C840        C  0.67454029  0.68754115  0.06637527    -0.13500
C841        C  0.67141853  0.69171458  0.10408657     0.08700
C842        C  0.64605363  0.67179369  0.12251484    -0.13500
H843        H  0.60495172  0.63398348  0.11884791     0.12700
H844        H  0.65634280  0.66123281  0.01893834     0.12700
H845        H  0.69416516  0.70109865  0.05087506     0.12700
H846        H  0.64345977  0.67371184  0.15162187     0.12700
C847        C  0.40231737  0.66692737  0.88469874    -0.13500
C848        C  0.42948795  0.64897116  0.86726983     0.08700
C849        C  0.43508081  0.65416230  0.83024856    -0.13500
C850        C  0.41331654  0.67634595  0.81078161    -0.13500
C851        C  0.38628017  0.69494283  0.82808260     0.08700
C852        C  0.38097025  0.68976789  0.86539016    -0.13500
H853        H  0.39720628  0.66289202  0.91320915     0.12700
H854        H  0.45545811  0.64011167  0.81602908     0.12700
H855        H  0.41744163  0.67875828  0.78191083     0.12700
H856        H  0.35972090  0.70206271  0.87976761     0.12700
C857        C  0.65226109  0.41980840  0.88147604    -0.13500
C858        C  0.62693615  0.43968167  0.86347383     0.08700
C859        C  0.62297652  0.43598467  0.82600218    -0.13500
C860        C  0.64440262  0.41308418  0.80680642    -0.13500
C861        C  0.66953354  0.39253089  0.82473986     0.08700
C862        C  0.67323749  0.39640879  0.86244322    -0.13500
H863        H  0.65607580  0.42256110  0.91037223     0.12700
H864        H  0.60402477  0.45149295  0.81138749     0.12700
H865        H  0.64144840  0.41148670  0.77771678     0.12700
H866        H  0.69285701  0.38250830  0.87757262     0.12700
C867        C  0.43091779  0.64975137  0.10221878    -0.13500
C868        C  0.42876504  0.64714893  0.06454336     0.08700
C869        C  0.40505353  0.66826465  0.04571519    -0.13500
C870        C  0.38359283  0.69160709  0.06430767    -0.13500
C871        C  0.38508607  0.69387847  0.10230533     0.08700
C872        C  0.40899280  0.67247399  0.12088721    -0.13500
H873        H  0.44866039  0.63334730  0.11737347     0.12700
H874        H  0.40285419  0.66645816  0.01655917     0.12700
H875        H  0.36540509  0.70676187  0.04859326     0.12700
H876        H  0.41045574  0.67316080  0.15013946     0.12700
C877        C  0.41462321  0.40900161  0.81003287    -0.13500
C878        C  0.38995474  0.38826294  0.82840331     0.08700
C879        C  0.38765090  0.39114388  0.86632678    -0.13500
C880        C  0.40852057  0.41497082  0.88494687    -0.13500
C881        C  0.43240627  0.43599136  0.86623816     0.08700
C882        C  0.43588531  0.43229819  0.82875641    -0.13500
H883        H  0.41684342  0.40770911  0.78085191     0.12700
H884        H  0.36906524  0.37634631  0.88192862     0.12700
H885        H  0.40548646  0.41744937  0.91397178     0.12700
H886        H  0.45395183  0.44846777  0.81370201     0.12700
C887        C  0.27248953  0.38539408  0.71216746    -0.13400
C888        C  0.29502096  0.38305986  0.73487415    -0.15000
C889        C  0.17526878  0.43999799  0.62011757    -0.13500
C890        C  0.17785344  0.40372691  0.61571031     0.08700
C891        C  0.15718823  0.38796528  0.58869689    -0.13500
C892        C  0.13528259  0.40766841  0.56642456    -0.13500
C893        C  0.13265815  0.44365228  0.57115683     0.08700
C894        C  0.15277570  0.45961545  0.59824840    -0.13500
H895        H  0.18974565  0.45365320  0.64070489     0.12700
H896        H  0.15807353  0.36015045  0.58478816     0.12700
H897        H  0.11971300  0.39457577  0.54606523     0.12700
H898        H  0.15103418  0.48732739  0.60261536     0.12700
C899        C  0.27053454  0.27552895  0.81301994    -0.13400
C900        C  0.29342055  0.29702202  0.81452043    -0.15000
C901        C  0.18708881  0.28372004  0.72898869    -0.13400
C902        C  0.18760920  0.30702253  0.70719417    -0.15000
C903        C  0.15602753  0.20081950  0.84802341    -0.13500
C904        C  0.17434898  0.18575506  0.81884857     0.08700
C905        C  0.16892881  0.15019730  0.81179470    -0.13500
C906        C  0.14662821  0.13042110  0.83359746    -0.13500
C907        C  0.12917181  0.14545015  0.86307995     0.08700
C908        C  0.13412721  0.18085658  0.87015533    -0.13500
H909        H  0.15885086  0.22820015  0.85383439     0.12700
H910        H  0.18089241  0.13727742  0.78909087     0.12700
H911        H  0.14288513  0.10326514  0.82719363     0.12700
H912        H  0.12054078  0.19330456  0.89237276     0.12700
C913        C  0.37558363  0.30065474  0.72898836    -0.13400
C914        C  0.37509725  0.28084261  0.70387151    -0.15000
C915        C  0.27031626  0.31054408  0.62156867    -0.13400
C916        C  0.29227043  0.28814549  0.61944789    -0.15000
C917        C  0.29074955  0.20238409  0.69877520    -0.13400
C918        C  0.26829670  0.20156325  0.72169194    -0.15000
C919        C  0.40208877  0.16566004  0.54718703    -0.13500
C920        C  0.42753231  0.14583448  0.56515992     0.08700
C921        C  0.43161922  0.14970874  0.60258356    -0.13500
C922        C  0.41013075  0.17244430  0.62183522    -0.13500
C923        C  0.38475398  0.19280414  0.60407358     0.08700
C924        C  0.38106079  0.18907971  0.56632839    -0.13500
H925        H  0.39825270  0.16284512  0.51830176     0.12700
H926        H  0.45068817  0.13433981  0.61719617     0.12700
H927        H  0.41320050  0.17401480  0.65091487     0.12700
H928        H  0.36142421  0.20312201  0.55133724     0.12700
C929        C  0.16920233  0.43625465  0.31001948    -0.13500
C930        C  0.17715289  0.40176139  0.31967768     0.08700
C931        C  0.16055667  0.38777572  0.35043086    -0.13500
C932        C  0.13835135  0.40803029  0.37187957    -0.13500
C933        C  0.13114065  0.44254194  0.36250771     0.08700
C934        C  0.14654537  0.45634059  0.33121184    -0.13500
H935        H  0.17943044  0.44782291  0.28564550     0.12700
H936        H  0.16482478  0.36100436  0.35799695     0.12700
H937        H  0.12629741  0.39641302  0.39546430     0.12700
H938        H  0.14086110  0.48265563  0.32289963     0.12700
C939        C  0.18853230  0.30422903  0.22931171    -0.13400
C940        C  0.18801844  0.28071147  0.20770628    -0.15000
C941        C  0.13198127  0.17950513  0.06756931    -0.13500
C942        C  0.12922061  0.14352873  0.07216173     0.08700
C943        C  0.14895436  0.12750892  0.09939246    -0.13500
C944        C  0.17133257  0.14695821  0.12148229    -0.13500
C945        C  0.17431496  0.18319043  0.11709331     0.08700
C946        C  0.15387590  0.19909742  0.09004000    -0.13500
H947        H  0.11664480  0.19263663  0.04709343     0.12700
H948        H  0.14705256  0.09979655  0.10367574     0.12700
H949        H  0.18550309  0.13310567  0.14208150     0.12700
H950        H  0.15508231  0.22689482  0.08613637     0.12700
C951        C  0.29380955  0.28773978  0.31464881    -0.13400
C952        C  0.27176163  0.31006709  0.31336743    -0.15000
C953        C  0.29211227  0.20049689  0.23568177    -0.13400
C954        C  0.26956528  0.19909450  0.21293510    -0.15000
C955        C  0.41439025  0.17523974  0.31077982    -0.13500
C956        C  0.38797395  0.19447316  0.32833792     0.08700
C957        C  0.38317679  0.18962858  0.36580029    -0.13500
C958        C  0.40415010  0.16627177  0.38489837    -0.13500
C959        C  0.43045780  0.14739713  0.36714025     0.08700
C960        C  0.43576176  0.15244951  0.33003381    -0.13500
H961        H  0.41817924  0.17747614  0.28184581     0.12700
H962        H  0.36248632  0.20247593  0.38049855     0.12700
H963        H  0.39933877  0.16249192  0.41350332     0.12700
H964        H  0.45553492  0.13778748  0.31558230     0.12700
C965        C  0.37385543  0.28145616  0.22782482    -0.13400
C966        C  0.37361997  0.30149673  0.20289984    -0.15000
C967        C  0.27099736  0.38526642  0.22284404    -0.13400
C968        C  0.29287685  0.38355613  0.19942839    -0.15000
C969        C  0.29082242  0.29677171  0.11939393    -0.13400
C970        C  0.26892623  0.27432627  0.12165310    -0.15000
C971        C  0.43412832  0.43036724  0.10000346    -0.13500
C972        C  0.42678335  0.43722649  0.06359082     0.08700
C973        C  0.39835328  0.42040215  0.04699869    -0.13500
C974        C  0.37771253  0.39692776  0.06649239    -0.13500
C975        C  0.38506561  0.38985853  0.10311870     0.08700
C976        C  0.41318225  0.40750233  0.11964143    -0.13500
H977        H  0.45546818  0.44348111  0.11369420     0.12700
H978        H  0.39178335  0.42572501  0.01905038     0.12700
H979        H  0.35541317  0.38556052  0.05294721     0.12700
H980        H  0.41877696  0.40390838  0.14810151     0.12700
loop_ 
_geom_bond_atom_site_label_1 
_geom_bond_atom_site_label_2 
_geom_bond_distance 
_geom_bond_site_symmetry_2 
_ccdc_geom_bond_type 
C1            C2   1.544       .  S
C1            C7   1.554       .  S
C1            C5   1.550       .  S
C1          C975   1.523       .  S
C2            H9   1.086       .  S
C2            C3   1.360       .  D
C3            C4   1.525       .  S
C3          C968   1.438       .  S
C4            C8   1.526       .  S
C4            C6   1.525       .  S
C4           H10   1.113       .  S
C5           H11   1.086       .  S
C5            C6   1.361       .  D
C6          C966   1.438       .  S
C7           H12   1.084       .  S
C7            C8   1.365       .  D
C8          C969   1.441       .  S
C13          C14   1.546       .  S
C13          C19   1.554       .  S
C13          C17   1.548       .  S
C13         C956   1.522       .  S
C14          H21   1.086       .  S
C14          C15   1.361       .  D
C15          C16   1.525       .  S
C15         C953   1.438       .  S
C16          C20   1.526       .  S
C16          C18   1.526       .  S
C16          H22   1.113       .  S
C17          H23   1.086       .  S
C17          C18   1.361       .  D
C18         C965   1.438       .  S
C19          H24   1.083       .  S
C19          C20   1.363       .  D
C20         C951   1.440       .  S
C25          C26   1.549       .  S
C25          C31   1.551       .  S
C25          C29   1.555       .  S
C25         C945   1.530       .  S
C26          H33   1.086       .  S
C26          C27   1.362       .  D
C27          C28   1.526       .  S
C27         C970   1.441       .  S
C28          C32   1.526       .  S
C28          C30   1.525       .  S
C28          H34   1.113       .  S
C29          H35   1.081       .  S
C29          C30   1.361       .  D
C30         C954   1.439       .  S
C31          H36   1.086       .  S
C31          C32   1.366       .  D
C32         C940   1.446       .  S
C37          C38   1.551       .  S
C37          C43   1.548       .  S
C37          C41   1.553       .  S
C37         C930   1.529       .  S
C38          H45   1.086       .  S
C38          C39   1.362       .  D
C39          C40   1.526       .  S
C39         C952   1.440       .  S
C40          C44   1.526       .  S
C40          C42   1.525       .  S
C40          H46   1.113       .  S
C41          H47   1.083       .  S
C41          C42   1.362       .  D
C42         C967   1.439       .  S
C43          H48   1.086       .  S
C43          C44   1.364       .  D
C44         C939   1.446       .  S
C49          C50   1.547       .  S
C49          C55   1.556       .  S
C49          C53   1.547       .  S
C49         C923   1.524       .  S
C50          H57   1.086       .  S
C50          C51   1.360       .  D
C51          C52   1.525       .  S
C51         C914   1.436       .  S
C52          C56   1.525       .  S
C52          C54   1.524       .  S
C52          H58   1.113       .  S
C53          H59   1.086       .  S
C53          C54   1.361       .  D
C54         C917   1.439       .  S
C55          H60   1.083       .  S
C55          C56   1.365       .  D
C56         C916   1.441       .  S
C61          C62   1.550       .  S
C61          C67   1.549       .  S
C61          C65   1.555       .  S
C61         C904   1.530       .  S
C62          H69   1.086       .  S
C62          C63   1.365       .  D
C63          C64   1.526       .  S
C63         C901   1.445       .  S
C64          C68   1.526       .  S
C64          C66   1.525       .  S
C64          H70   1.113       .  S
C65          H71   1.082       .  S
C65          C66   1.361       .  D
C66         C918   1.440       .  S
C67          H72   1.086       .  S
C67          C68   1.362       .  D
C68         C899   1.440       .  S
C73          C74   1.550       .  S
C73          C79   1.549       .  S
C73          C77   1.556       .  S
C73         C890   1.531       .  S
C74          H81   1.086       .  S
C74          C75   1.364       .  D
C75          C76   1.526       .  S
C75         C902   1.445       .  S
C76          C80   1.526       .  S
C76          C78   1.525       .  S
C76          H82   1.113       .  S
C77          H83   1.082       .  S
C77          C78   1.364       .  D
C78         C887   1.440       .  S
C79          H84   1.086       .  S
C79          C80   1.362       .  D
C80         C915   1.442       .  S
C85          C86   1.555       .  S
C85          C91   1.547       .  S
C85          C89   1.546       .  S
C85         C878   1.520       .  S
C86          H93   1.082       .  S
C86          C87   1.363       .  D
C87          C88   1.526       .  S
C87         C900   1.440       .  S
C88          C92   1.525       .  S
C88          C90   1.526       .  S
C88          H94   1.113       .  S
C89          H95   1.086       .  S
C89          C90   1.360       .  D
C90         C913   1.436       .  S
C91          H96   1.086       .  S
C91          C92   1.360       .  D
C92         C888   1.440       .  S
N97          N98   1.320       .  A
N97         N103   1.315       .  A
N97        Mn126   2.193   1_554  S
N98         C105   1.352       .  A
N99         N101   1.315       .  A
N99         N100   1.321       .  A
N99        Mn115   2.205       .  S
N100        C106   1.355       .  A
N101        N102   1.317       .  A
N101       Mn126   2.187   1_554  S
N102        C106   1.350       .  A
N103        N104   1.320       .  A
N103       Mn115   2.203       .  S
N104        C105   1.354       .  A
C105        C972   1.475       .  S
C106        C868   1.470       .  S
N107        N113   1.315       .  A
N107        N108   1.317       .  A
N107       Mn137   2.187   1_554  S
N108        C116   1.350       .  A
N109        N110   1.320       .  A
N109        N111   1.316       .  A
N109       Mn115   2.201       .  S
N110        C117   1.354       .  A
N111        N112   1.319       .  A
N111       Mn137   2.196   1_554  S
N112        C117   1.352       .  A
N113        N114   1.322       .  A
N113       Mn115   2.207       .  S
N114        C116   1.356       .  A
Mn115      Cl139   2.560   1_554  S
C116        C838   1.473       .  S
C117        C818   1.473       .  S
N118        N119   1.318       .  A
N118        N124   1.315       .  A
N118       Mn126   2.190       .  S
N119        C127   1.351       .  A
N120        N122   1.315       .  A
N120        N121   1.320       .  A
N120       Mn138   2.199       .  S
N121        C128   1.353       .  A
N122        N123   1.318       .  A
N122       Mn126   2.189       .  S
N123        C128   1.351       .  A
N124        N125   1.320       .  A
N124       Mn138   2.198       .  S
N125        C127   1.354       .  A
Mn126      Cl139   2.527       .  S
C127        C848   1.470       .  S
C128        C881   1.468       .  S
N129        N130   1.318       .  A
N129        N135   1.315       .  A
N129       Mn137   2.191       .  S
N130        C140   1.351       .  A
N131        N132   1.320       .  A
N131        N133   1.315       .  A
N131       Mn138   2.201       .  S
N132        C141   1.354       .  A
N133        N134   1.319       .  A
N133       Mn137   2.195       .  S
N134        C141   1.352       .  A
N135        N136   1.321       .  A
N135       Mn138   2.199       .  S
N136        C140   1.354       .  A
Mn137      Cl139   2.525       .  S
Mn138      Cl139   2.560       .  S
C140        C858   1.472       .  S
C141        C831   1.474       .  S
C142        C143   1.555       .  S
C142        C148   1.547       .  S
C142        C146   1.545       .  S
C142        C871   1.521       .  S
C143        H150   1.082       .  S
C143        C144   1.364       .  D
C144        C145   1.526       .  S
C144        C815   1.440       .  S
C145        C149   1.525       .  S
C145        C147   1.526       .  S
C145        H151   1.113       .  S
C146        H152   1.086       .  S
C146        C147   1.358       .  D
C147        C811   1.435       .  S
C148        H153   1.086       .  S
C148        C149   1.361       .  D
C149        C813   1.440       .  S
C154        C155   1.547       .  S
C154        C160   1.550       .  S
C154        C158   1.553       .  S
C154        C802   1.526       .  S
C155        H162   1.086       .  S
C155        C156   1.363       .  D
C156        C157   1.527       .  S
C156        C797   1.446       .  S
C157        C161   1.527       .  S
C157        C159   1.526       .  S
C157        H163   1.113       .  S
C158        H164   1.083       .  S
C158        C159   1.363       .  D
C159        C799   1.439       .  S
C160        H165   1.086       .  S
C160        C161   1.361       .  D
C161        C816   1.440       .  S
C166        C167   1.551       .  S
C166        C172   1.552       .  S
C166        C170   1.556       .  S
C166        C788   1.536       .  S
C167        H174   1.086       .  S
C167        C168   1.367       .  D
C168        C169   1.525       .  S
C168        C798   1.445       .  S
C169        C173   1.525       .  S
C169        C171   1.524       .  S
C169        H175   1.113       .  S
C170        H176   1.082       .  S
C170        C171   1.362       .  D
C171        C814   1.440       .  S
C172        H177   1.086       .  S
C172        C173   1.364       .  D
C173        C785   1.444       .  S
C178        C179   1.558       .  S
C178        C184   1.546       .  S
C178        C182   1.546       .  S
C178        C776   1.525       .  S
C179        H186   1.082       .  S
C179        C180   1.366       .  D
C180        C181   1.525       .  S
C180        C786   1.444       .  S
C181        C185   1.525       .  S
C181        C183   1.525       .  S
C181        H187   1.113       .  S
C182        H188   1.086       .  S
C182        C183   1.360       .  D
C183        C812   1.435       .  S
C184        H189   1.086       .  S
C184        C185   1.360       .  D
C185        C800   1.439       .  S
N190        N191   1.319       .  A
N190        N196   1.315       .  A
N190       Mn219   2.194       .  S
N191        C198   1.352       .  A
N192        N194   1.316       .  A
N192        N193   1.321   1_545  A
N192       Mn208   2.208       .  S
N193        C199   1.355       .  A
N194        N195   1.319   1_545  A
N194       Mn219   2.196       .  S
N195        C199   1.352       .  A
N196        N197   1.320       .  A
N196       Mn208   2.202       .  S
N197        C198   1.354       .  A
C198        C959   1.472       .  S
C199        C779   1.476       .  S
N200        N206   1.316       .  A
N200        N201   1.319   1_545  A
N200       Mn230   2.197       .  S
N201        C209   1.352       .  A
N202        N203   1.321       .  A
N202        N204   1.315       .  A
N202       Mn208   2.208       .  S
N203        C210   1.355       .  A
N204        N205   1.320       .  A
N204       Mn230   2.196       .  S
N205        C210   1.352       .  A
N206        N207   1.321   1_545  A
N206       Mn208   2.205       .  S
N207        C209   1.355       .  A
Mn208      Cl232   2.560       .  S
C209        C746   1.477       .  S
C210        C726   1.476       .  S
N211        N212   1.319   1_545  A
N211        N217   1.315       .  A
N211       Mn219   2.195       .  S
N212        C220   1.352       .  A
N213        N215   1.315       .  A
N213        N214   1.321       .  A
N213       Mn231   2.205       .  S
N214        C221   1.354       .  A
N215        N216   1.320       .  A
N215       Mn219   2.196       .  S
N216        C221   1.352       .  A
N217        N218   1.319   1_545  A
N217       Mn231   2.195       .  S
N218        C220   1.352       .  A
Mn219      Cl232   2.529       .  S
C220        C756   1.469       .  S
C221        C920   1.475       .  S
N222        N223   1.318       .  A
N222        N228   1.315       .  A
N222       Mn230   2.193       .  S
N223        C233   1.351       .  A
N224        N225   1.321   1_545  A
N224        N226   1.315       .  A
N224       Mn231   2.205       .  S
N225        C234   1.355       .  A
N226        N227   1.319   1_545  A
N226       Mn230   2.197       .  S
N227        C234   1.352       .  A
N228        N229   1.321       .  A
N228       Mn231   2.201       .  S
N229        C233   1.355       .  A
Mn230      Cl232   2.528       .  S
Mn231      Cl232   2.561       .  S
C233        C766   1.472       .  S
C234        C736   1.476       .  S
C235        C236   1.546       .  S
C235        C241   1.556       .  S
C235        C239   1.547       .  S
C235        C861   1.523       .  S
C236        H243   1.086       .  S
C236        C237   1.361       .  D
C237        C238   1.524       .  S
C237        C724   1.438       .  S
C238        C242   1.524       .  S
C238        C240   1.525       .  S
C238        H244   1.113       .  S
C239        H245   1.086       .  S
C239        C240   1.360       .  D
C240        C719   1.435       .  S
C241        H246   1.082       .  S
C241        C242   1.363       .  D
C242        C722   1.442       .  S
C247        C248   1.553       .  S
C247        C253   1.552       .  S
C247        C251   1.548       .  S
C247        C710   1.531       .  S
C248        H255   1.083       .  S
C248        C249   1.361       .  D
C249        C250   1.525       .  S
C249        C723   1.439       .  S
C250        C254   1.526       .  S
C250        C252   1.526       .  S
C250        H256   1.113       .  S
C251        H257   1.086       .  S
C251        C252   1.365       .  D
C252        C707   1.443       .  S
C253        H258   1.086       .  S
C253        C254   1.364       .  D
C254        C705   1.443       .  S
C259        C260   1.546       .  S
C259        C265   1.557       .  S
C259        C263   1.545       .  S
C259        C769   1.523       .  S
C260        H267   1.086       .  S
C260        C261   1.361       .  D
C261        C262   1.525       .  S
C261        C703   1.439       .  S
C262        C266   1.525       .  S
C262        C264   1.527       .  S
C262        H268   1.113       .  S
C263        H269   1.086       .  S
C263        C264   1.358       .  D
C264        C720   1.435       .  S
C265        H270   1.082       .  S
C265        C266   1.366       .  D
C266        C706   1.443       .  S
C271        C272   1.555       .  S
C271        C277   1.550       .  S
C271        C275   1.548       .  S
C271        C694   1.528       .  S
C272        H279   1.082       .  S
C272        C273   1.362       .  D
C273        C274   1.525       .  S
C273        C704   1.439       .  S
C274        C278   1.526       .  S
C274        C276   1.527       .  S
C274        H280   1.113       .  S
C275        H281   1.086       .  S
C275        C276   1.363       .  D
C276        C708   1.444       .  S
C277        H282   1.086       .  S
C277        C278   1.363       .  D
C278        C721   1.441       .  S
C283        C284   1.545       .  S
C283        C289   1.555       .  S
C283        C287   1.546       .  S
C283        C851   1.519       .  S
C284        H291   1.086       .  S
C284        C285   1.360       .  D
C285        C286   1.525       .  S
C285        C688   1.437       .  S
C286        C290   1.526       .  S
C286        C288   1.525       .  S
C286        H292   1.113       .  S
C287        H293   1.086       .  S
C287        C288   1.358       .  D
C288        C691   1.434       .  S
C289        H294   1.083       .  S
C289        C290   1.364       .  D
C290        C690   1.442       .  S
C295        C296   1.547       .  S
C295        C301   1.555       .  S
C295        C299   1.545       .  S
C295        C759   1.520       .  S
C296        H303   1.086       .  S
C296        C297   1.360       .  D
C297        C298   1.525       .  S
C297        C685   1.438       .  S
C298        C302   1.525       .  S
C298        C300   1.525       .  S
C298        H304   1.113       .  S
C299        H305   1.086       .  S
C299        C300   1.359       .  D
C300        C692   1.433       .  S
C301        H306   1.082       .  S
C301        C302   1.363       .  D
C302        C684   1.440       .  S
C307        C308   1.551       .  S
C307        C313   1.551       .  S
C307        C311   1.553       .  S
C307        C674   1.531       .  S
C308        H315   1.086       .  S
C308        C309   1.363       .  D
C309        C310   1.526       .  S
C309        C683   1.440       .  S
C310        C314   1.525       .  S
C310        C312   1.525       .  S
C310        H316   1.113       .  S
C311        H317   1.083       .  S
C311        C312   1.359       .  D
C312        C687   1.437       .  S
C313        H318   1.086       .  S
C313        C314   1.367       .  D
C314        C671   1.448       .  S
C319        C320   1.551       .  S
C319        C325   1.551       .  S
C319        C323   1.554       .  S
C319        C662   1.534       .  S
C320        H327   1.086       .  S
C320        C321   1.364       .  D
C321        C322   1.525       .  S
C321        C689   1.442       .  S
C322        C326   1.526       .  S
C322        C324   1.525       .  S
C322        H328   1.113       .  S
C323        H329   1.082       .  S
C323        C324   1.361       .  D
C324        C686   1.439       .  S
C325        H330   1.086       .  S
C325        C326   1.366       .  D
C326        C672   1.448       .  S
C331        C332   1.545       .  S
C331        C337   1.556       .  S
C331        C335   1.549       .  S
C331        C749   1.525       .  S
C332        H339   1.086       .  S
C332        C333   1.361       .  D
C333        C334   1.524       .  S
C333        C657   1.438       .  S
C334        C338   1.526       .  S
C334        C336   1.525       .  S
C334        H340   1.113       .  S
C335        H341   1.086       .  S
C335        C336   1.361       .  D
C336        C656   1.438       .  S
C337        H342   1.084       .  S
C337        C338   1.365       .  D
C338        C660   1.443       .  S
C343        C344   1.551       .  S
C343        C349   1.551       .  S
C343        C347   1.556       .  S
C343        C646   1.535       .  S
C344        H351   1.086       .  S
C344        C345   1.364       .  D
C345        C346   1.526       .  S
C345        C659   1.444       .  S
C346        C350   1.525       .  S
C346        C348   1.523       .  S
C346        H352   1.113       .  S
C347        H353   1.081       .  S
C347        C348   1.361       .  D
C348        C642   1.439       .  S
C349        H354   1.086       .  S
C349        C350   1.367       .  D
C350        C643   1.447       .  S
C355        C356   1.546       .  S
C355        C361   1.557       .  S
C355        C359   1.547       .  S
C355        C841   1.524       .  S
C356        H363   1.086       .  S
C356        C357   1.361       .  D
C357        C358   1.525       .  S
C357        C641   1.439       .  S
C358        C362   1.525       .  S
C358        C360   1.525       .  S
C358        H364   1.113       .  S
C359        H365   1.086       .  S
C359        C360   1.360       .  D
C360        C655   1.437       .  S
C361        H366   1.082       .  S
C361        C362   1.365       .  D
C362        C640   1.441       .  S
C367        C368   1.549       .  S
C367        C373   1.550       .  S
C367        C371   1.554       .  S
C367        C630   1.530       .  S
C368        H375   1.086       .  S
C368        C369   1.363       .  D
C369        C370   1.528       .  S
C369        C639   1.442       .  S
C370        C374   1.527       .  S
C370        C372   1.526       .  S
C370        H376   1.113       .  S
C371        H377   1.082       .  S
C371        C372   1.361       .  D
C372        C658   1.439       .  S
C373        H378   1.086       .  S
C373        C374   1.365       .  D
C374        C644   1.447       .  S
C379        C380   1.555       .  S
C379        C385   1.546       .  S
C379        C383   1.548       .  S
C379        C828   1.522       .  S
C380        H387   1.083       .  S
C380        C381   1.365       .  D
C381        C382   1.526       .  S
C381        C627   1.441       .  S
C382        C386   1.524       .  S
C382        C384   1.525       .  S
C382        H388   1.113       .  S
C383        H389   1.086       .  S
C383        C384   1.360       .  D
C384        C624   1.437       .  S
C385        H390   1.086       .  S
C385        C386   1.361       .  D
C386        C626   1.439       .  S
C391        C392   1.552       .  S
C391        C397   1.551       .  S
C391        C395   1.555       .  S
C391        C614   1.535       .  S
C392        H399   1.086       .  S
C392        C393   1.366       .  D
C393        C394   1.525       .  S
C393        C611   1.447       .  S
C394        C398   1.526       .  S
C394        C396   1.524       .  S
C394        H400   1.113       .  S
C395        H401   1.081       .  S
C395        C396   1.361       .  D
C396        C625   1.440       .  S
C397        H402   1.086       .  S
C397        C398   1.365       .  D
C398        C609   1.444       .  S
C403        C404   1.557       .  S
C403        C409   1.546       .  S
C403        C407   1.547       .  S
C403        C739   1.526       .  S
C404        H411   1.083       .  S
C404        C405   1.365       .  D
C405        C406   1.526       .  S
C405        C610   1.445       .  S
C406        C410   1.524       .  S
C406        C408   1.526       .  S
C406        H412   1.113       .  S
C407        H413   1.086       .  S
C407        C408   1.360       .  D
C408        C623   1.437       .  S
C409        H414   1.086       .  S
C409        C410   1.361       .  D
C410        C607   1.439       .  S
C415        C416   1.549       .  S
C415        C421   1.550       .  S
C415        C419   1.554       .  S
C415        C598   1.529       .  S
C416        H423   1.086       .  S
C416        C417   1.365       .  D
C417        C418   1.527       .  S
C417        C612   1.447       .  S
C418        C422   1.527       .  S
C418        C420   1.526       .  S
C418        H424   1.113       .  S
C419        H425   1.082       .  S
C419        C420   1.361       .  D
C420        C608   1.440       .  S
C421        H426   1.086       .  S
C421        C422   1.362       .  D
C422        C628   1.441       .  S
N427        N428   1.320       .  A
N427        N433   1.316       .  A
N427       Mn456   2.207       .  S
N428        C435   1.353       .  A
N429        N431   1.317       .  A
N429        N430   1.321       .  A
N429       Mn445   2.209   1_654  S
N430        C436   1.354       .  A
N431        N432   1.322       .  A
N431       Mn456   2.213   1_655  S
N432        C436   1.355       .  A
N433        N434   1.321       .  A
N433       Mn445   2.204   1_554  S
N434        C435   1.354       .  A
C435        C942   1.478       .  S
C436        C588   1.484       .  S
N437        N443   1.317       .  A
N437        N438   1.321       .  A
N437       Mn467   2.210   1_655  S
N438        C446   1.354       .  A
N439        N440   1.322       .  A
N439        N441   1.317       .  A
N439       Mn445   2.209       .  S
N440        C447   1.354       .  A
N441        N442   1.320       .  A
N441       Mn467   2.206       .  S
N442        C447   1.353       .  A
N443        N444   1.320       .  A
N443       Mn445   2.200   1_655  S
N444        C446   1.353       .  A
Mn445      Cl469   2.556       .  S
C446        C697   1.478       .  S
C447        C907   1.480       .  S
N448        N449   1.321   1_545  A
N448        N454   1.317   1_545  A
N448       Mn456   2.208   1_655  S
N449        C457   1.354       .  A
N450        N452   1.316   1_565  A
N450        N451   1.319       .  A
N450       Mn468   2.197   1_554  S
N451        C458   1.352       .  A
N452        N453   1.321   1_545  A
N452       Mn456   2.207       .  S
N453        C458   1.354       .  A
N454        N455   1.321       .  A
N454       Mn468   2.204   1_654  S
N455        C457   1.353       .  A
Mn456      Cl469   2.544   1_554  S
C457        C633   1.479       .  S
C458        C805   1.477       .  S
N459        N460   1.323   1_545  A
N459        N465   1.316   1_545  A
N459       Mn467   2.216       .  S
N460        C470   1.356       .  A
N461        N462   1.320       .  A
N461        N463   1.316   1_565  A
N461       Mn468   2.201   1_655  S
N462        C471   1.353       .  A
N463        N464   1.321   1_545  A
N463       Mn467   2.208   1_655  S
N464        C471   1.354       .  A
N465        N466   1.321       .  A
N465       Mn468   2.203       .  S
N466        C470   1.353       .  A
Mn467      Cl469   2.544       .  S
Mn468      Cl469   2.555   1_565  S
C470        C665   1.483       .  S
C471        C601   1.479       .  S
C472        C473   1.558       .  S
C472        C478   1.546       .  S
C472        C476   1.547       .  S
C472        C729   1.526       .  S
C473        H480   1.083       .  S
C473        C474   1.368       .  D
C474        C475   1.524       .  S
C474        C584   1.444       .  S
C475        C479   1.524       .  S
C475        C477   1.525       .  S
C475        H481   1.113       .  S
C476        H482   1.086       .  S
C476        C477   1.360       .  D
C477        C581   1.437       .  S
C478        H483   1.086       .  S
C478        C479   1.360       .  D
C479        C585   1.439       .  S
C484        C485   1.552       .  S
C484        C490   1.551       .  S
C484        C488   1.555       .  S
C484        C591   1.534       .  S
C485        H492   1.086       .  S
C485        C486   1.367       .  D
C486        C487   1.524       .  S
C486        C579   1.447       .  S
C487        C491   1.525       .  S
C487        C489   1.524       .  S
C487        H493   1.113       .  S
C488        H494   1.082       .  S
C488        C489   1.362       .  D
C489        C586   1.439       .  S
C490        H495   1.086       .  S
C490        C491   1.363       .  D
C491        C578   1.441       .  S
C496        C497   1.555       .  S
C496        C502   1.546       .  S
C496        C500   1.548       .  S
C496        C821   1.523       .  S
C497        H504   1.083       .  S
C497        C498   1.364       .  D
C498        C499   1.526       .  S
C498        C577   1.441       .  S
C499        C503   1.525       .  S
C499        C501   1.525       .  S
C499        H505   1.113       .  S
C500        H506   1.086       .  S
C500        C501   1.360       .  D
C501        C582   1.437       .  S
C502        H507   1.086       .  S
C502        C503   1.361       .  D
C503        C576   1.440       .  S
C508        C509   1.550       .  S
C508        C514   1.549       .  S
C508        C512   1.556       .  S
C508        C569   1.533       .  S
C509        H516   1.086       .  S
C509        C510   1.365       .  D
C510        C511   1.528       .  S
C510        C580   1.447       .  S
C511        C515   1.528       .  S
C511        C513   1.526       .  S
C511        H517   1.113       .  S
C512        H518   1.082       .  S
C512        C513   1.363       .  D
C513        C575   1.441       .  S
C514        H519   1.086       .  S
C514        C515   1.363       .  D
C515        C583   1.445       .  S
N520        N521   1.322       .  A
N520        N526   1.317       .  A
N520       Mn549   2.213       .  S
N521        C528   1.354       .  A
N522        N524   1.317       .  A
N522        N523   1.322       .  A
N522       Mn538   2.210   1_655  S
N523        C529   1.354       .  A
N524        N525   1.321       .  A
N524       Mn549   2.210   1_655  S
N525        C529   1.353       .  A
N526        N527   1.320       .  A
N526       Mn538   2.202       .  S
N527        C528   1.353       .  A
C528        C933   1.481       .  S
C529        C566   1.480       .  S
N530        N536   1.317       .  A
N530        N531   1.322       .  A
N530       Mn560   2.213   1_655  S
N531        C539   1.355       .  A
N532        N533   1.322       .  A
N532        N534   1.317       .  A
N532       Mn538   2.209       .  S
N533        C540   1.354       .  A
N534        N535   1.322       .  A
N534       Mn560   2.210       .  S
N535        C540   1.354       .  A
N536        N537   1.321       .  A
N536       Mn538   2.204   1_655  S
N537        C539   1.353       .  A
Mn538      Cl562   2.560       .  S
C539        C713   1.482       .  S
C540        C893   1.481       .  S
N541        N542   1.322       .  A
N541        N547   1.317       .  A
N541       Mn549   2.213   1_655  S
N542        C550   1.354       .  A
N543        N545   1.317       .  A
N543        N544   1.323       .  A
N543       Mn561   2.215       .  S
N544        C551   1.355       .  A
N545        N546   1.322       .  A
N545       Mn549   2.212       .  S
N546        C551   1.354       .  A
N547        N548   1.322       .  A
N547       Mn561   2.206   1_655  S
N548        C550   1.354       .  A
Mn549      Cl562   2.544       .  S
C550        C649   1.482       .  S
C551        C791   1.486       .  S
N552        N553   1.321       .  A
N552        N558   1.317       .  A
N552       Mn560   2.208       .  S
N553        C563   1.354       .  A
N554        N555   1.321       .  A
N554        N556   1.318       .  A
N554       Mn561   2.213   1_655  S
N555        C564   1.354       .  A
N556        N557   1.323       .  A
N556       Mn560   2.214   1_655  S
N557        C564   1.355       .  A
N558        N559   1.321       .  A
N558       Mn561   2.204       .  S
N559        C563   1.353       .  A
Mn560      Cl562   2.546       .  S
Mn561      Cl562   2.560       .  S
C563        C677   1.480       .  S
C564        C617   1.483       .  S
C565        C566   1.402       .  A
C565        C570   1.400       .  A
C565        H571   1.083       .  S
C566        C567   1.403       .  A
C567        C568   1.400       .  A
C567        H572   1.083       .  S
C568        C569   1.410       .  A
C568        H573   1.083       .  S
C569        C570   1.412       .  A
C570        H574   1.077       .  S
C575        C576   1.205       .  T
C577        C578   1.205       .  T
C579        C580   1.209       .  T
C581        C582   1.203       .  T
C583        C584   1.207       .  T
C585        C586   1.204       .  T
C587        C588   1.404       .  A
C587        C592   1.400       .  A
C587        H593   1.083       .  S
C588        C589   1.403       .  A
C589        C590   1.402       .  A
C589        H594   1.083       .  S
C590        C591   1.413       .  A
C590        H595   1.078       .  S
C591        C592   1.409       .  A
C592        H596   1.083       .  S
C597        C598   1.412       .  A
C597        C602   1.399       .  A
C597        H603   1.078       .  S
C598        C599   1.409       .  A
C599        C600   1.398       .  A
C599        H604   1.083       .  S
C600        C601   1.403       .  A
C600        H605   1.083       .  S
C601        C602   1.402       .  A
C602        H606   1.083       .  S
C607        C608   1.204       .  T
C609        C610   1.207       .  T
C611        C612   1.209       .  T
C613        C614   1.414       .  A
C613        C618   1.402       .  A
C613        H619   1.076       .  S
C614        C615   1.409       .  A
C615        C616   1.400       .  A
C615        H620   1.083       .  S
C616        C617   1.404       .  A
C616        H621   1.083       .  S
C617        C618   1.402       .  A
C618        H622   1.083       .  S
C623        C624   1.203       .  T
C625        C626   1.204       .  T
C627        C628   1.205       .  T
C629        C630   1.412       .  A
C629        C634   1.398       .  A
C629        H635   1.077       .  S
C630        C631   1.409       .  A
C631        C632   1.399       .  A
C631        H636   1.083       .  S
C632        C633   1.403       .  A
C632        H637   1.083       .  S
C633        C634   1.401       .  A
C634        H638   1.083       .  S
C639        C640   1.206       .  T
C641        C642   1.204       .  T
C643        C644   1.209       .  T
C645        C646   1.413       .  A
C645        C650   1.400       .  A
C645        H651   1.076       .  S
C646        C647   1.410       .  A
C647        C648   1.401       .  A
C647        H652   1.083       .  S
C648        C649   1.404       .  A
C648        H653   1.083       .  S
C649        C650   1.401       .  A
C650        H654   1.083       .  S
C655        C656   1.203       .  T
C657        C658   1.204       .  T
C659        C660   1.207       .  T
C661        C662   1.414       .  A
C661        C666   1.401       .  A
C661        H667   1.077       .  S
C662        C663   1.409       .  A
C663        C664   1.400       .  A
C663        H668   1.083       .  S
C664        C665   1.404       .  A
C664        H669   1.083       .  S
C665        C666   1.402       .  A
C666        H670   1.083       .  S
C671        C672   1.210       .  T
C673        C674   1.412       .  A
C673        C678   1.399       .  A
C673        H679   1.078       .  S
C674        C675   1.409       .  A
C675        C676   1.399       .  A
C675        H680   1.083       .  S
C676        C677   1.403       .  A
C676        H681   1.083       .  S
C677        C678   1.402       .  A
C678        H682   1.083       .  S
C683        C684   1.205       .  T
C685        C686   1.203       .  T
C687        C688   1.203       .  T
C689        C690   1.206       .  T
C691        C692   1.201       .  T
C693        C694   1.409       .  A
C693        C698   1.398       .  A
C693        H699   1.083       .  S
C694        C695   1.411       .  A
C695        C696   1.399       .  A
C695        H700   1.077       .  S
C696        C697   1.402       .  A
C696        H701   1.083       .  S
C697        C698   1.403       .  A
C698        H702   1.083       .  S
C703        C704   1.204       .  T
C705        C706   1.207       .  T
C707        C708   1.207       .  T
C709        C710   1.412       .  A
C709        C714   1.400       .  A
C709        H715   1.079       .  S
C710        C711   1.409       .  A
C711        C712   1.399       .  A
C711        H716   1.083       .  S
C712        C713   1.404       .  A
C712        H717   1.083       .  S
C713        C714   1.402       .  A
C714        H718   1.083       .  S
C719        C720   1.202       .  T
C721        C722   1.206       .  T
C723        C724   1.204       .  T
C725        C726   1.400       .  A
C725        C730   1.396       .  A
C725        H731   1.083       .  S
C726        C727   1.404       .  A
C727        C728   1.400       .  A
C727        H732   1.083       .  S
C728        C729   1.409       .  A
C728        H733   1.078       .  S
C729        C730   1.410       .  A
C730        H734   1.083       .  S
C735        C736   1.401       .  A
C735        C740   1.397       .  A
C735        H741   1.083       .  S
C736        C737   1.403       .  A
C737        C738   1.398       .  A
C737        H742   1.083       .  S
C738        C739   1.409       .  A
C738        H743   1.078       .  S
C739        C740   1.410       .  A
C740        H744   1.083       .  S
C745        C746   1.403       .  A
C745        C750   1.399       .  A
C745        H751   1.083       .  S
C746        C747   1.401       .  A
C747        C748   1.396       .  A
C747        H752   1.083       .  S
C748        C749   1.410       .  A
C748        H753   1.083       .  S
C749        C750   1.409       .  A
C750        H754   1.079       .  S
C755        C756   1.400       .  A
C755        C760   1.393       .  A
C755        H761   1.083       .  S
C756        C757   1.401       .  A
C757        C758   1.396       .  A
C757        H762   1.083       .  S
C758        C759   1.409       .  A
C758        H763   1.077       .  S
C759        C760   1.408       .  A
C760        H764   1.083       .  S
C765        C766   1.403       .  A
C765        C770   1.397       .  A
C765        H771   1.083       .  S
C766        C767   1.400       .  A
C767        C768   1.395       .  A
C767        H772   1.083       .  S
C768        C769   1.410       .  A
C768        H773   1.083       .  S
C769        C770   1.408       .  A
C770        H774   1.078       .  S
C775        C776   1.410       .  A
C775        C780   1.396       .  A
C775        H781   1.083       .  S
C776        C777   1.409       .  A
C777        C778   1.399       .  A
C777        H782   1.078       .  S
C778        C779   1.403       .  A
C778        H783   1.083       .  S
C779        C780   1.401       .  A
C780        H784   1.083       .  S
C785        C786   1.207       .  T
C787        C788   1.410       .  A
C787        C792   1.402       .  A
C787        H793   1.083       .  S
C788        C789   1.412       .  A
C789        C790   1.401       .  A
C789        H794   1.077       .  S
C790        C791   1.403       .  A
C790        H795   1.083       .  S
C791        C792   1.404       .  A
C792        H796   1.083       .  S
C797        C798   1.208       .  T
C799        C800   1.204       .  T
C801        C802   1.408       .  A
C801        C806   1.396       .  A
C801        H807   1.083       .  S
C802        C803   1.411       .  A
C803        C804   1.399       .  A
C803        H808   1.079       .  S
C804        C805   1.403       .  A
C804        H809   1.083       .  S
C805        C806   1.402       .  A
C806        H810   1.083       .  S
C811        C812   1.202       .  T
C813        C814   1.205       .  T
C815        C816   1.205       .  T
C817        C818   1.400       .  A
C817        C822   1.394       .  A
C817        H823   1.083       .  S
C818        C819   1.403       .  A
C819        C820   1.398       .  A
C819        H824   1.083       .  S
C820        C821   1.410       .  A
C820        H825   1.078       .  S
C821        C822   1.409       .  A
C822        H826   1.083       .  S
C827        C828   1.409       .  A
C827        C832   1.399       .  A
C827        H833   1.079       .  S
C828        C829   1.409       .  A
C829        C830   1.394       .  A
C829        H834   1.083       .  S
C830        C831   1.400       .  A
C830        H835   1.083       .  S
C831        C832   1.404       .  A
C832        H836   1.083       .  S
C837        C838   1.400       .  A
C837        C842   1.397       .  A
C837        H843   1.083       .  S
C838        C839   1.403       .  A
C839        C840   1.396       .  A
C839        H844   1.083       .  S
C840        C841   1.408       .  A
C840        H845   1.078       .  S
C841        C842   1.410       .  A
C842        H846   1.083       .  S
C847        C848   1.402       .  A
C847        C852   1.397       .  A
C847        H853   1.083       .  S
C848        C849   1.400       .  A
C849        C850   1.393       .  A
C849        H854   1.083       .  S
C850        C851   1.409       .  A
C850        H855   1.083       .  S
C851        C852   1.408       .  A
C852        H856   1.078       .  S
C857        C858   1.402       .  A
C857        C862   1.396       .  A
C857        H863   1.083       .  S
C858        C859   1.401       .  A
C859        C860   1.397       .  A
C859        H864   1.083       .  S
C860        C861   1.410       .  A
C860        H865   1.083       .  S
C861        C862   1.409       .  A
C862        H866   1.077       .  S
C867        C868   1.399       .  A
C867        C872   1.394       .  A
C867        H873   1.083       .  S
C868        C869   1.403       .  A
C869        C870   1.397       .  A
C869        H874   1.083       .  S
C870        C871   1.409       .  A
C870        H875   1.078       .  S
C871        C872   1.409       .  A
C872        H876   1.083       .  S
C877        C878   1.409       .  A
C877        C882   1.393       .  A
C877        H883   1.083       .  S
C878        C879   1.409       .  A
C879        C880   1.396       .  A
C879        H884   1.077       .  S
C880        C881   1.402       .  A
C880        H885   1.083       .  S
C881        C882   1.399       .  A
C882        H886   1.083       .  S
C887        C888   1.205       .  T
C889        C890   1.412       .  A
C889        C894   1.401       .  A
C889        H895   1.077       .  S
C890        C891   1.409       .  A
C891        C892   1.398       .  A
C891        H896   1.083       .  S
C892        C893   1.403       .  A
C892        H897   1.083       .  S
C893        C894   1.403       .  A
C894        H898   1.083       .  S
C899        C900   1.204       .  T
C901        C902   1.208       .  T
C903        C904   1.410       .  A
C903        C908   1.400       .  A
C903        H909   1.083       .  S
C904        C905   1.411       .  A
C905        C906   1.398       .  A
C905        H910   1.077       .  S
C906        C907   1.402       .  A
C906        H911   1.083       .  S
C907        C908   1.403       .  A
C908        H912   1.083       .  S
C913        C914   1.202       .  T
C915        C916   1.206       .  T
C917        C918   1.205       .  T
C919        C920   1.403       .  A
C919        C924   1.399       .  A
C919        H925   1.083       .  S
C920        C921   1.400       .  A
C921        C922   1.395       .  A
C921        H926   1.083       .  S
C922        C923   1.409       .  A
C922        H927   1.083       .  S
C923        C924   1.410       .  A
C924        H928   1.078       .  S
C929        C930   1.411       .  A
C929        C934   1.400       .  A
C929        H935   1.079       .  S
C930        C931   1.409       .  A
C931        C932   1.398       .  A
C931        H936   1.083       .  S
C932        C933   1.403       .  A
C932        H937   1.083       .  S
C933        C934   1.403       .  A
C934        H938   1.083       .  S
C939        C940   1.208       .  T
C941        C942   1.402       .  A
C941        C946   1.399       .  A
C941        H947   1.083       .  S
C942        C943   1.401       .  A
C943        C944   1.398       .  A
C943        H948   1.083       .  S
C944        C945   1.412       .  A
C944        H949   1.076       .  S
C945        C946   1.409       .  A
C946        H950   1.083       .  S
C951        C952   1.205       .  T
C953        C954   1.204       .  T
C955        C956   1.409       .  A
C955        C960   1.395       .  A
C955        H961   1.083       .  S
C956        C957   1.410       .  A
C957        C958   1.397       .  A
C957        H962   1.078       .  S
C958        C959   1.402       .  A
C958        H963   1.083       .  S
C959        C960   1.400       .  A
C960        H964   1.083       .  S
C965        C966   1.204       .  T
C967        C968   1.204       .  T
C969        C970   1.205       .  T
C971        C972   1.401       .  A
C971        C976   1.394       .  A
C971        H977   1.083       .  S
C972        C973   1.404       .  A
C973        C974   1.400       .  A
C973        H978   1.083       .  S
C974        C975   1.410       .  A
C974        H979   1.079       .  S
C975        C976   1.408       .  A
C976        H980   1.083       .  S
