geometry optimzed in LAMMPS
_audit_creation_date              2020-11-30 
_audit_creation_method            'lammps2cif' 
_symmetry_space_group_name_H-M    'P1' 
_symmetry_Int_Tables_number       1 
_symmetry_cell_setting            triclinic 
loop_ 
_symmetry_equiv_pos_as_xyz 
  x,y,z 
_cell_length_a                    48.93615268 
_cell_length_b                    48.743953146600255 
_cell_length_c                    48.829807976800716 
_cell_angle_alpha                 89.59634916926291 
_cell_angle_beta                  90.2156527680488 
_cell_angle_gamma                 90.1151243990148 
loop_ 
_atom_site_label 
_atom_site_type_symbol 
_atom_site_fract_x 
_atom_site_fract_y 
_atom_site_fract_z 
_atom_site_charge 
C1          C  0.58518017  0.05745961  0.74701798    -0.02200
C2          C  0.57964245  0.93720608  0.74272299    -0.02200
C3          C  0.46067772  0.06287887  0.74767053    -0.02200
C4          C  0.45794109  0.94131166  0.74062518    -0.02200
C5          C  0.76439145  0.56569785  0.93466967    -0.02200
C6          C  0.77335236  0.44528565  0.06019971    -0.02200
C7          C  0.76588062  0.56912936  0.05622968    -0.02200
C8          C  0.77185905  0.44199326  0.93739247    -0.02200
C9          C  0.07123798  0.74690665  0.56047825    -0.02200
C10         C  0.07054463  0.74754361  0.43646359    -0.02200
C11         C  0.94886163  0.75096602  0.55935074    -0.02200
C12         C  0.94848276  0.75214971  0.43560047    -0.02200
In13       In  0.61939595  0.14317532  0.10026576     1.36900
C14         C  0.56936046  0.14954490  0.08034671     0.77900
O15         O  0.63752782  0.15367383  0.05966531    -0.60500
O16         O  0.64196527  0.11259540  0.07327305    -0.51500
C17         C  0.63768910  0.19125225  0.11842031     0.70600
O18         O  0.61418152  0.18213783  0.12390166    -0.46300
C19         C  0.61358152  0.10965667  0.14378082     0.75300
O20         O  0.58224719  0.16864350  0.09193238    -0.58200
O21         O  0.59557055  0.11353932  0.12586150    -0.48300
O22         O  0.58276083  0.12771862  0.07762838    -0.54600
C23         C  0.64572740  0.12991144  0.05425786     0.85400
O24         O  0.65275718  0.17466550  0.10568279    -0.56500
O25         O  0.63591761  0.12178835  0.13881371    -0.59800
In26       In  0.62758585  0.35769114  0.10439979     1.36900
C27         C  0.60372380  0.35840001  0.05563590     0.77900
O28         O  0.59346470  0.34713462  0.13329112    -0.60500
O29         O  0.59430907  0.38747683  0.11730014    -0.51500
C30         C  0.64326179  0.30720425  0.11732342     0.70600
O31         O  0.64014407  0.31576758  0.09311437    -0.46300
C32         C  0.67581304  0.38391198  0.09803629     0.75300
O33         O  0.60717552  0.33673019  0.06937443    -0.58200
O34         O  0.66143905  0.38782290  0.11924376    -0.48300
O35         O  0.61134145  0.37998788  0.06754421    -0.54600
C36         C  0.58081146  0.36940283  0.13009678     0.85400
O37         O  0.63949829  0.32509363  0.13566690    -0.56500
O38         O  0.66550556  0.36688319  0.08190963    -0.59800
In39       In  0.40450156  0.14488367  0.10149010     1.36900
C40         C  0.45400539  0.14966299  0.08043443     0.77900
O41         O  0.39019569  0.12492037  0.14172683    -0.60500
O42         O  0.42676551  0.11162675  0.12340769    -0.51500
C43         C  0.39214923  0.19308732  0.12286078     0.70600
O44         O  0.41560679  0.18252051  0.12450634    -0.46300
C45         C  0.37756776  0.13609167  0.05467708     0.75300
O46         O  0.44206222  0.16911265  0.09223347    -0.58200
O47         O  0.37954528  0.11754375  0.07281355    -0.48300
O48         O  0.43993089  0.12815015  0.07814987    -0.54600
C49         C  0.41145419  0.11032843  0.14391519     0.85400
O50         O  0.37405203  0.17776128  0.11231895    -0.56500
O51         O  0.38634385  0.15909492  0.06210683    -0.59800
In52       In  0.41567874  0.35693398  0.10451234     1.36900
C53         C  0.43459847  0.36271288  0.05428237     0.77900
O54         O  0.37531301  0.36339659  0.08505511    -0.60500
O55         O  0.38433376  0.38894535  0.11883152    -0.51500
C56         C  0.39813000  0.30818217  0.12086175     0.70600
O57         O  0.40288814  0.31432138  0.09621524    -0.46300
C58         C  0.46410130  0.36611203  0.12877271     0.75300
O59         O  0.43206924  0.33968572  0.06588019    -0.58200
O60         O  0.44783645  0.38544957  0.12293442    -0.48300
O61         O  0.42866174  0.38292353  0.06900484    -0.54600
C62         C  0.36750573  0.38267324  0.10001351     0.85400
O63         O  0.40197603  0.32740158  0.13785156    -0.56500
O64         O  0.45418495  0.34260632  0.12497311    -0.59800
In65       In  0.62928067  0.14028598  0.89359392     1.36900
C66         C  0.57967452  0.13559436  0.91445201     0.77900
O67         O  0.61051953  0.13728868  0.85219238    -0.60500
O68         O  0.64281832  0.10981987  0.86073946    -0.51500
C69         C  0.64410727  0.19134721  0.88255703     0.70600
O70         O  0.62003695  0.18455906  0.88891460    -0.46300
C71         C  0.65439844  0.12431687  0.93977926     0.75300
O72         O  0.59276183  0.15791283  0.91469371    -0.58200
O73         O  0.63896469  0.10862972  0.92638108    -0.48300
O74         O  0.59236953  0.11580073  0.90412309    -0.54600
C75         C  0.62438371  0.11735261  0.84401956     0.85400
O76         O  0.66108301  0.17177596  0.88139935    -0.56500
O77         O  0.66044789  0.14612175  0.92721258    -0.59800
In78       In  0.41853660  0.36401272  0.88716313     1.36900
C79         C  0.36776138  0.38466982  0.89312707     0.77900
O80         O  0.39864840  0.32914679  0.86374069    -0.60500
O81         O  0.43172959  0.32100943  0.89121671    -0.51500
C82         C  0.46347172  0.38020384  0.86016153     0.70600
O83         O  0.45347619  0.39354392  0.87968513    -0.46300
C84         C  0.43521821  0.36643162  0.93852086     0.75300
O85         O  0.37670315  0.36375775  0.90533004    -0.58200
O86         O  0.43280467  0.34435578  0.92558964    -0.48300
O87         O  0.38433536  0.39457211  0.87571221    -0.54600
C88         C  0.41415492  0.31146834  0.87491521     0.85400
O89         O  0.44753614  0.36212421  0.85085915    -0.56500
O90         O  0.42978786  0.38773114  0.92477351    -0.59800
In91       In  0.62479883  0.35697256  0.89263384     1.36900
C92         C  0.60030605  0.35798227  0.94074054     0.77900
O93         O  0.66167131  0.38266255  0.87699646    -0.60500
O94         O  0.65812273  0.37233368  0.91883355    -0.51500
C95         C  0.64381824  0.30707554  0.88218502     0.70600
O96         O  0.63991140  0.31611384  0.90591288    -0.46300
C97         C  0.57931736  0.37120408  0.86481905     0.75300
O98         O  0.60427228  0.33598995  0.92790264    -0.58200
O99         O  0.59594705  0.38874496  0.87405995    -0.48300
O100        O  0.60706302  0.37944809  0.92789532    -0.54600
C101        C  0.67227598  0.38377451  0.90072657     0.85400
O102        O  0.63880982  0.32409346  0.86307872    -0.56500
O103        O  0.58785559  0.34689678  0.86668354    -0.59800
In104      In  0.41731911  0.14244135  0.89664716     1.36900
C105        C  0.42306836  0.11861114  0.84747664     0.77900
O106        O  0.39198825  0.17812664  0.88070026    -0.60500
O107        O  0.43415419  0.18383772  0.89023577    -0.51500
C108        C  0.38547377  0.13185588  0.93996528     0.70600
O109        O  0.39901531  0.11335405  0.92826207    -0.46300
C110        C  0.46511328  0.13509103  0.92078821     0.75300
O111        O  0.40318616  0.11255685  0.86298782    -0.58200
O112        O  0.45221860  0.15734806  0.92198117    -0.48300
O113        O  0.43821057  0.13711704  0.85679097    -0.54600
C114        C  0.41216393  0.19449348  0.88190949     0.85400
O115        O  0.38523422  0.15433328  0.92711525    -0.56500
O116        O  0.45225884  0.11581034  0.90944163    -0.59800
In117      In  0.61140353  0.63567935  0.88891683     1.36900
C118        C  0.58542581  0.63516070  0.93600978     0.77900
O119        O  0.57555995  0.65046899  0.86464584    -0.60500
O120        O  0.58335875  0.60790652  0.86374087    -0.51500
C121        C  0.63383854  0.68492467  0.88270107     0.70600
O122        O  0.62865407  0.67412455  0.90562921    -0.46300
C123        C  0.65666383  0.60565132  0.89683761     0.75300
O124        O  0.59259272  0.65701459  0.92408937    -0.58200
O125        O  0.63776518  0.60759038  0.91399944    -0.48300
O126        O  0.59004661  0.61349169  0.92283959    -0.54600
C127        C  0.56707070  0.62716505  0.85783875     0.85400
O128        O  0.62874018  0.66976431  0.86233559    -0.56500
O129        O  0.65138133  0.61698417  0.87402135    -0.59800
In130      In  0.41154575  0.64100968  0.10431932     1.36900
C131        C  0.42614163  0.63314109  0.05289388     0.77900
O132        O  0.44708392  0.61272196  0.11194919    -0.60500
O133        O  0.43955251  0.64318095  0.14141182    -0.51500
C134        C  0.40880006  0.69462947  0.11180889     0.70600
O135        O  0.42290574  0.68332299  0.09357936    -0.46300
C136        C  0.36149953  0.61894438  0.10212561     0.75300
O137        O  0.43005085  0.65541753  0.06517296    -0.58200
O138        O  0.37977184  0.60969358  0.11811457    -0.48300
O139        O  0.41542474  0.61451387  0.06730713    -0.54600
C140        C  0.45600269  0.62561242  0.13230629     0.85400
O141        O  0.39508904  0.67831962  0.12675156    -0.56500
O142        O  0.36801826  0.64093742  0.09017876    -0.59800
In143      In  0.61419679  0.64539239  0.09675758     1.36900
C144        C  0.58815908  0.64034995  0.04975554     0.77900
O145        O  0.65430649  0.62755881  0.11391308    -0.60500
O146        O  0.64349134  0.62061956  0.07262358    -0.51500
C147        C  0.63152707  0.69653248  0.10312564     0.70600
O148        O  0.62541933  0.68131969  0.12330780    -0.46300
C149        C  0.57040584  0.63346521  0.12743031     0.75300
O150        O  0.59495623  0.66335334  0.05933138    -0.58200
O151        O  0.57705758  0.65739136  0.12035548    -0.48300
O152        O  0.59328654  0.62014181  0.06513603    -0.54600
C153        C  0.66102389  0.61735794  0.09112493     0.85400
O154        O  0.63017172  0.68503064  0.08011773    -0.56500
O155        O  0.58805372  0.61552478  0.12169790    -0.59800
In156      In  0.40637753  0.63812550  0.88683031     1.36900
C157        C  0.42568303  0.63119950  0.93692620     0.77900
O158        O  0.36655954  0.63270041  0.90684878    -0.60500
O159        O  0.37430317  0.60693026  0.87289020    -0.51500
C160        C  0.38953790  0.68693195  0.86994186     0.70600
O161        O  0.39292053  0.68061432  0.89478282    -0.46300
C162        C  0.45290429  0.62808803  0.86039456     0.75300
O163        O  0.42522700  0.65424074  0.92508407    -0.58200
O164        O  0.43539574  0.60935905  0.86450540    -0.48300
O165        O  0.41812031  0.61138120  0.92231477    -0.54600
C166        C  0.35811598  0.61354705  0.89198398     0.85400
O167        O  0.39379433  0.66769665  0.85317964    -0.56500
O168        O  0.44546072  0.65152094  0.86797139    -0.59800
In169      In  0.41764743  0.86370685  0.08653262     1.36900
C170        C  0.46815063  0.87095368  0.06905808     0.77900
O171        O  0.38129913  0.85779646  0.05828664    -0.60500
O172        O  0.40712700  0.89174993  0.05123179    -0.51500
C173        C  0.41120200  0.81129231  0.09888308     0.70600
O174        O  0.43212436  0.82104640  0.08726668    -0.46300
C175        C  0.42036428  0.88642747  0.13603260     0.75300
O176        O  0.45433547  0.84998453  0.06301169    -0.58200
O177        O  0.40658743  0.89740670  0.11690580    -0.48300
O178        O  0.45545468  0.88865982  0.08266082    -0.54600
C179        C  0.38794448  0.87709767  0.04232385     0.85400
O180        O  0.39235028  0.82851786  0.10329536    -0.56500
O181        O  0.43010681  0.86347950  0.13013918    -0.59800
In182      In  0.62044580  0.85197665  0.89218923     1.36900
C183        C  0.57116782  0.84548572  0.91420235     0.77900
O184        O  0.65944472  0.85511194  0.91700646    -0.60500
O185        O  0.62831717  0.88420490  0.92394589    -0.51500
C186        C  0.63822987  0.80103765  0.88461354     0.70600
O187        O  0.63667384  0.81814391  0.86509292    -0.46300
C188        C  0.61095213  0.87861447  0.84464403     0.75300
O189        O  0.58405665  0.82625010  0.90307066    -0.58200
O190        O  0.59394337  0.86368042  0.85689836    -0.48300
O191        O  0.58407626  0.86783323  0.91515239    -0.54600
C192        C  0.65056555  0.87399543  0.93204059     0.85400
O193        O  0.63200602  0.81057884  0.90767713    -0.56500
O194        O  0.63400225  0.87982137  0.85647072    -0.59800
In195      In  0.63416397  0.86656664  0.09115817     1.36900
C196        C  0.63348895  0.88899637  0.14125382     0.77900
O197        O  0.59535708  0.88981285  0.08801192    -0.60500
O198        O  0.59805656  0.85208045  0.06687266    -0.51500
C199        C  0.66014837  0.88246588  0.04572296     0.70600
O200        O  0.64002845  0.89497618  0.05546467    -0.46300
C201        C  0.64074781  0.81336642  0.09915679     0.75300
O202        O  0.64346836  0.90163361  0.12091966    -0.58200
O203        O  0.61772059  0.82490302  0.09796850    -0.48300
O204        O  0.62813890  0.86434739  0.13649162    -0.54600
C205        C  0.58355226  0.87238495  0.07319582     0.85400
O206        O  0.66997225  0.86439331  0.06157710    -0.56500
O207        O  0.66115339  0.82920396  0.09616006    -0.59800
In208      In  0.40964616  0.84985523  0.88343747     1.36900
C209        C  0.45696546  0.84426919  0.90951532     0.77900
O210        O  0.39560122  0.87672198  0.84691294    -0.60500
O211        O  0.43758698  0.86905731  0.85338115    -0.51500
C212        C  0.39237709  0.80186782  0.86455032     0.70600
O213        O  0.41692030  0.80957892  0.86342201    -0.46300
C214        C  0.38312179  0.86574652  0.92830697     0.75300
O215        O  0.44344055  0.82412453  0.90074395    -0.58200
O216        O  0.39083923  0.88270445  0.91021302    -0.48300
O217        O  0.44548736  0.86716744  0.90617287    -0.54600
C218        C  0.41986321  0.88070729  0.83879084     0.85400
O219        O  0.37593430  0.81979846  0.87319482    -0.56500
O220        O  0.38618455  0.84103577  0.92174229    -0.59800
C221        C  0.57595742  0.06161309  0.24752055    -0.02200
C222        C  0.46324886  0.93797778  0.23568281    -0.02200
C223        C  0.58202670  0.93784814  0.23833528    -0.02200
C224        C  0.45738068  0.06154201  0.24496237    -0.02200
In225      In  0.90325271  0.59707952  0.63054525     1.36900
C226        C  0.95203227  0.57574286  0.62063138     0.77900
O227        O  0.86664253  0.56864810  0.63417427    -0.60500
O228        O  0.88918822  0.56822835  0.59753469    -0.51500
C229        C  0.89736376  0.60119056  0.68449972     0.70600
O230        O  0.91133028  0.58297114  0.67291468    -0.46300
C231        C  0.91045395  0.64868476  0.61236078     0.75300
O232        O  0.94088402  0.57470487  0.64382623    -0.58200
O233        O  0.88837738  0.63584629  0.60757031    -0.48300
O234        O  0.93772051  0.58694826  0.60220709    -0.54600
C235        C  0.87183906  0.55619130  0.61228628     0.85400
O236        O  0.88533026  0.61756153  0.66822096    -0.56500
O237        O  0.92708596  0.63540050  0.62691300    -0.59800
In238      In  0.90899894  0.40124630  0.63501982     1.36900
C239        C  0.91486564  0.34862374  0.62059957     0.77900
O240        O  0.94423836  0.40606136  0.60613543    -0.60500
O241        O  0.94650179  0.42557052  0.64477462    -0.51500
C242        C  0.87712448  0.44195197  0.61614367     0.70600
O243        O  0.89531330  0.43082047  0.60188025    -0.46300
C244        C  0.90458754  0.39814266  0.68903964     0.75300
O245        O  0.92970269  0.36110158  0.63740802    -0.58200
O246        O  0.92275674  0.41167887  0.67660470    -0.48300
O247        O  0.89469163  0.36257775  0.61202571    -0.54600
C248        C  0.95852822  0.41962903  0.62280847     0.85400
O249        O  0.87240375  0.42944552  0.63827966    -0.56500
O250        O  0.88721820  0.38666779  0.67354516    -0.59800
In251      In  0.12350701  0.39266211  0.63323972     1.36900
C252        C  0.11964440  0.34140780  0.61340116     0.77900
O253        O  0.14768614  0.38017302  0.67140683    -0.60500
O254        O  0.10902789  0.39976424  0.67527521    -0.51500
C255        C  0.15295149  0.43594362  0.61625758     0.70600
O256        O  0.16047255  0.42113456  0.63616761    -0.46300
C257        C  0.07353954  0.41186185  0.62377594     0.75300
O258        O  0.13440602  0.35951939  0.60205890    -0.58200
O259        O  0.08710197  0.41743768  0.64496047    -0.48300
O260        O  0.11002374  0.34872461  0.63602432    -0.54600
C261        C  0.12967025  0.38987532  0.68726807     0.85400
O262        O  0.13367056  0.42576113  0.60263254    -0.56500
O263        O  0.08583202  0.39672990  0.60706332    -0.59800
In264      In  0.11512013  0.59225839  0.63207368     1.36900
C265        C  0.06651749  0.57112658  0.62083433     0.77900
O266        O  0.09311442  0.63180315  0.63017337    -0.60500
O267        O  0.12876740  0.62953545  0.60608093    -0.51500
C268        C  0.11958271  0.59922949  0.68574925     0.70600
O269        O  0.10180557  0.58428021  0.67449172    -0.46300
C270        C  0.14783813  0.55083523  0.61717091     0.75300
O271        O  0.07866940  0.56698138  0.64328545    -0.58200
O272        O  0.13006100  0.56111114  0.60150911    -0.48300
O273        O  0.08016731  0.58456217  0.60345100    -0.54600
C274        C  0.10816315  0.64362339  0.61299072     0.85400
O275        O  0.13587918  0.61094754  0.66926743    -0.56500
O276        O  0.15200870  0.56466869  0.63846991    -0.59800
In277      In  0.11802939  0.39242261  0.85954249     1.36900
C278        C  0.09958945  0.44166706  0.87239453     0.77900
O279        O  0.08614006  0.37816074  0.88992204    -0.60500
O280        O  0.08818702  0.35750335  0.85228255    -0.51500
C281        C  0.12568501  0.38990583  0.80564935     0.70600
O282        O  0.11401224  0.40953926  0.81755646    -0.46300
C283        C  0.16892956  0.39357381  0.88024805     0.75300
O284        O  0.09305369  0.42981348  0.85046438    -0.58200
O285        O  0.15161897  0.37581489  0.88800437    -0.48300
O286        O  0.11444567  0.42765885  0.88824394    -0.54600
C287        C  0.07491450  0.36138589  0.87396236     0.85400
O288        O  0.13350063  0.37077139  0.82155212    -0.56500
O289        O  0.16058369  0.40869471  0.86105257    -0.59800
In290      In  0.91469749  0.60382651  0.85613039     1.36900
C291        C  0.95800344  0.63469643  0.86972354     0.77900
O292        O  0.92163536  0.56918667  0.88558420    -0.60500
O293        O  0.93915855  0.56684196  0.84596576    -0.51500
C294        C  0.86402924  0.59999751  0.87664826     0.70600
O295        O  0.87915425  0.62048322  0.88187202    -0.46300
C296        C  0.90574429  0.60575152  0.80244982     0.75300
O297        O  0.94658157  0.61847771  0.88628260    -0.58200
O298        O  0.91856948  0.58687077  0.81463303    -0.48300
O299        O  0.94456880  0.63853181  0.84798055    -0.54600
C300        C  0.93500297  0.55516735  0.86869043     0.85400
O301        O  0.87455848  0.58329248  0.86038471    -0.56500
O302        O  0.89768741  0.62487909  0.81791792    -0.59800
In303      In  0.11639645  0.60583761  0.85797926     1.36900
C304        C  0.16728773  0.60247696  0.87801063     0.77900
O305        O  0.11257552  0.57080446  0.88743042    -0.60500
O306        O  0.09107622  0.56863727  0.84972160    -0.51500
C307        C  0.07317232  0.63613720  0.87183738     0.70600
O308        O  0.08399967  0.61886683  0.88772260    -0.46300
C309        C  0.12065689  0.60762646  0.80391986     0.75300
O310        O  0.15062888  0.62027831  0.88666041    -0.58200
O311        O  0.11166182  0.58740531  0.81740487    -0.48300
O312        O  0.15880110  0.58951618  0.85754972    -0.54600
C313        C  0.09766733  0.55677918  0.87177094     0.85400
O314        O  0.08729188  0.64143537  0.85091122    -0.56500
O315        O  0.12840963  0.62774757  0.81840351    -0.59800
In316      In  0.91940120  0.39137965  0.86101801     1.36900
C317        C  0.86905690  0.39945935  0.88067207     0.77900
O318        O  0.92780842  0.42601006  0.88963719    -0.60500
O319        O  0.94424567  0.42794644  0.84951486    -0.51500
C320        C  0.96049280  0.35873895  0.87660527     0.70600
O321        O  0.94978988  0.37596260  0.89232143    -0.46300
C322        C  0.91283020  0.38940560  0.80706435     0.75300
O323        O  0.88195009  0.37750459  0.88613700    -0.58200
O324        O  0.92930558  0.40503069  0.81925236    -0.48300
O325        O  0.88129005  0.41504428  0.86423196    -0.54600
C326        C  0.94041594  0.43999511  0.87189702     0.85400
O327        O  0.94685699  0.35453027  0.85508738    -0.56500
O328        O  0.89938788  0.37355158  0.82274696    -0.59800
C329        C  0.26585606  0.55985395  0.05855416    -0.02200
C330        C  0.26666697  0.43335033  0.93742489    -0.02200
C331        C  0.26258851  0.55643899  0.93610915    -0.02200
C332        C  0.26700494  0.43650905  0.06050513    -0.02200
In333      In  0.11592769  0.60075385  0.35194153     1.36900
C334        C  0.06709558  0.57709948  0.34689353     0.77900
O335        O  0.14167975  0.56395223  0.34093944    -0.60500
O336        O  0.13870153  0.57353030  0.38272992    -0.51500
C337        C  0.12393373  0.62331894  0.30258356     0.70600
O338        O  0.10093420  0.62095608  0.31391167    -0.46300
C339        C  0.10881763  0.64509392  0.38401113     0.75300
O340        O  0.08082574  0.58527527  0.32671357    -0.58200
O341        O  0.09348130  0.62443675  0.38405929    -0.48300
O342        O  0.07936174  0.57896590  0.36951145    -0.54600
C343        C  0.14658552  0.55650238  0.36514935     0.85400
O344        O  0.14382964  0.61546660  0.31741703    -0.56500
O345        O  0.12968793  0.64235245  0.36907750    -0.59800
In346      In  0.11835694  0.61080597  0.13499578     1.36900
C347        C  0.16744021  0.60431134  0.11158454     0.77900
O348        O  0.14065320  0.63499398  0.16802249    -0.60500
O349        O  0.10277490  0.61579866  0.17747921    -0.51500
C350        C  0.07381188  0.63464302  0.11339530     0.70600
O351        O  0.08249499  0.61161137  0.10603943    -0.46300
C352        C  0.10447868  0.55853852  0.13822770     0.75300
O353        O  0.15053149  0.62190141  0.10256203    -0.58200
O354        O  0.10909992  0.57294521  0.15904105    -0.48300
O355        O  0.15975600  0.59225483  0.13300610    -0.54600
C356        C  0.12306156  0.62922543  0.18612457     0.85400
O357        O  0.09020228  0.64749548  0.12875516    -0.56500
O358        O  0.10585175  0.57131331  0.11577785    -0.59800
In359      In  0.12281692  0.38964066  0.14522965     1.36900
C360        C  0.10843890  0.44194022  0.14291981     0.77900
O361        O  0.16558738  0.40579417  0.14249480    -0.60500
O362        O  0.15410920  0.37638106  0.11309405    -0.51500
C363        C  0.12395232  0.37641386  0.19814241     0.70600
O364        O  0.10560326  0.39077312  0.18694110    -0.46300
C365        C  0.07876534  0.36318306  0.12599544     0.75300
O366        O  0.11492497  0.43000426  0.16490799    -0.58200
O367        O  0.09411902  0.35258572  0.14402878    -0.48300
O368        O  0.10887090  0.42688723  0.12210831    -0.54600
C369        C  0.17204790  0.39331047  0.12106327     0.85400
O370        O  0.14181226  0.36729621  0.18180839    -0.56500
O371        O  0.08824454  0.38479191  0.11549122    -0.59800
In372      In  0.12007713  0.39613879  0.36849253     1.36900
C373        C  0.12026399  0.34786433  0.39537546     0.77900
O374        O  0.08050589  0.39595041  0.39084882    -0.60500
O375        O  0.08355064  0.42055762  0.35507569    -0.51500
C376        C  0.14914204  0.44180416  0.37896579     0.70600
O377        O  0.15621377  0.42483295  0.36099956    -0.46300
C378        C  0.12302416  0.38341194  0.31565673     0.75300
O379        O  0.12496348  0.37009639  0.40762700    -0.58200
O380        O  0.10156130  0.39174371  0.32720554    -0.48300
O381        O  0.12017657  0.35031357  0.36976053    -0.54600
C382        C  0.06878156  0.41213179  0.37448222     0.85400
O383        O  0.13023602  0.43320197  0.39407800    -0.56500
O384        O  0.14366929  0.38160951  0.33138126    -0.59800
In385      In  0.91283108  0.61556252  0.13749127     1.36900
C386        C  0.93409611  0.56582580  0.13585872     0.77900
O387        O  0.87498483  0.59201646  0.12968561    -0.60500
O388        O  0.87774304  0.63061170  0.10976804    -0.51500
C389        C  0.89836616  0.63212705  0.18707444     0.70600
O390        O  0.90039303  0.60736800  0.18029219    -0.46300
C391        C  0.95894930  0.63935370  0.11987390     0.75300
O392        O  0.93253301  0.57938289  0.15767900    -0.58200
O393        O  0.94069365  0.63113762  0.10348286    -0.48300
O394        O  0.92616506  0.57847701  0.11471081    -0.54600
C395        C  0.86389224  0.60889941  0.11367377     0.85400
O396        O  0.90305419  0.64928823  0.16803295    -0.56500
O397        O  0.95199903  0.63843675  0.14466544    -0.59800
In398      In  0.90256005  0.39912077  0.36332082     1.36900
C399        C  0.95338598  0.41582969  0.37182971     0.77900
O400        O  0.88921452  0.43540444  0.38863290    -0.60500
O401        O  0.86775740  0.42867671  0.35208164    -0.51500
C402        C  0.90467370  0.38583963  0.31071079     0.70600
O403        O  0.92519592  0.39305498  0.32467489    -0.46300
C404        C  0.90227894  0.35165622  0.39196784     0.75300
O405        O  0.93977922  0.42333118  0.35115234    -0.58200
O406        O  0.90043437  0.37480946  0.40305494    -0.48300
O407        O  0.94052679  0.40078945  0.38832677    -0.54600
C408        C  0.87247101  0.44485413  0.37152891     0.85400
O409        O  0.88246289  0.38455709  0.32405918    -0.56500
O410        O  0.89879780  0.35250156  0.36643511    -0.59800
In411      In  0.90382547  0.60566942  0.35158134     1.36900
C412        C  0.90964728  0.64921353  0.38490486     0.77900
O413        O  0.93860917  0.58078778  0.36872824    -0.60500
O414        O  0.94040300  0.59322941  0.32723856    -0.51500
C415        C  0.87370213  0.56043117  0.36205904     0.70600
O416        O  0.88092357  0.57679743  0.38067945    -0.46300
C417        C  0.89417192  0.62799664  0.30258395     0.75300
O418        O  0.92623328  0.62968320  0.38361797    -0.58200
O419        O  0.91724947  0.62854660  0.31418642    -0.48300
O420        O  0.88830579  0.64563382  0.37067260    -0.54600
C421        C  0.95224686  0.58142051  0.34693356     0.85400
O422        O  0.87899867  0.56904830  0.33834818    -0.56500
O423        O  0.87524761  0.61775515  0.31708733    -0.59800
In424      In  0.92135562  0.39802703  0.14097903     1.36900
C425        C  0.87123599  0.40465360  0.11892497     0.77900
O426        O  0.90022874  0.37464065  0.17519420    -0.60500
O427        O  0.93243231  0.40251874  0.18476190    -0.51500
C428        C  0.96436829  0.36804342  0.12449128     0.70600
O429        O  0.95515193  0.38816302  0.11109520    -0.46300
C430        C  0.93870022  0.44946757  0.13667205     0.75300
O431        O  0.88669399  0.38528354  0.11141050    -0.58200
O432        O  0.93801299  0.43655364  0.15908686    -0.48300
O433        O  0.88079478  0.41833211  0.13845407    -0.54600
C434        C  0.91471973  0.38584923  0.19356028     0.85400
O435        O  0.94916527  0.36071018  0.14396121    -0.56500
O436        O  0.93208661  0.43540897  0.11611315    -0.59800
In437      In  0.37330840  0.10676430  0.60142123     1.36900
C438        C  0.36607582  0.05652220  0.58166473     0.77900
O439        O  0.36166423  0.12727606  0.56177746    -0.60500
O440        O  0.40348703  0.12804978  0.57237569    -0.51500
C441        C  0.32477786  0.12227282  0.62026395     0.70600
O442        O  0.33508149  0.09903012  0.62516802    -0.46300
C443        C  0.40751959  0.10167569  0.64479651     0.75300
O444        O  0.34792441  0.06895757  0.59480850    -0.58200
O445        O  0.39279463  0.12273058  0.64127412    -0.48300
O446        O  0.38744495  0.07031142  0.57763497    -0.54600
C447        C  0.38557015  0.13301921  0.55432702     0.85400
O448        O  0.34044305  0.13873797  0.60765927    -0.56500
O449        O  0.40606844  0.08503462  0.62537308    -0.59800
In450      In  0.16102625  0.09508054  0.61061359     1.36900
C451        C  0.16283605  0.07301357  0.56152855     0.77900
O452        O  0.17497897  0.05683434  0.63196585    -0.60500
O453        O  0.13270104  0.06540981  0.63322239    -0.51500
C454        C  0.20938428  0.11688998  0.62241403     0.70600
O455        O  0.19981865  0.11562143  0.59842437    -0.46300
C456        C  0.12865630  0.13897998  0.60397987     0.75300
O457        O  0.18371519  0.08277542  0.57315812    -0.58200
O458        O  0.13132434  0.12035846  0.58666195    -0.48300
O459        O  0.14153181  0.07291276  0.57590704    -0.54600
C460        C  0.15151935  0.04832680  0.63807594     0.85400
O461        O  0.19332356  0.10847088  0.64095984    -0.56500
O462        O  0.14097288  0.13439025  0.62636554    -0.59800
In463      In  0.15775651  0.10203582  0.39732062     1.36900
C464        C  0.12886489  0.14913346  0.40140516     0.77900
O465        O  0.13817805  0.08646954  0.43558529    -0.60500
O466        O  0.18121824  0.08402708  0.43247754    -0.51500
C467        C  0.14538660  0.05455221  0.37273684     0.70600
O468        O  0.16358900  0.07057524  0.36374085    -0.46300
C469        C  0.20800329  0.11549025  0.38203622     0.75300
O470        O  0.15181929  0.14493669  0.41206199    -0.58200
O471        O  0.20042324  0.11447492  0.40668594    -0.48300
O472        O  0.12084405  0.12971495  0.38634093    -0.54600
C473        C  0.16036696  0.07980847  0.44687806     0.85400
O474        O  0.13110522  0.06474533  0.39146769    -0.56500
O475        O  0.18933559  0.11082956  0.36454393    -0.59800
In476      In  0.37476286  0.10381908  0.39380988     1.36900
C477        C  0.37201606  0.05588207  0.41902673     0.77900
O478        O  0.38762113  0.07817207  0.35911798    -0.60500
O479        O  0.40202565  0.11889590  0.35786804    -0.51500
C480        C  0.32401681  0.11523670  0.37797469     0.70600
O481        O  0.34160729  0.13401252  0.38147135    -0.46300
C482        C  0.38927754  0.13174402  0.43882218     0.75300
O483        O  0.35138210  0.07076664  0.41496648    -0.58200
O484        O  0.40562988  0.11598065  0.42671508    -0.48300
O485        O  0.39450679  0.06673803  0.41246414    -0.54600
C486        C  0.40165355  0.09558745  0.34651829     0.85400
O487        O  0.33302000  0.09124017  0.38099155    -0.56500
O488        O  0.36752447  0.13604703  0.42565907    -0.59800
In489      In  0.16519937  0.88786678  0.60845932     1.36900
C490        C  0.16490144  0.91418659  0.56075518     0.77900
O491        O  0.14981645  0.85461061  0.58238492    -0.60500
O492        O  0.13681519  0.85245039  0.62342447    -0.51500
C493        C  0.21485466  0.86915635  0.62078729     0.70600
O494        O  0.20553896  0.87025804  0.59674098    -0.46300
C495        C  0.15316352  0.93290864  0.63698078     0.75300
O496        O  0.18656061  0.90862839  0.57363886    -0.58200
O497        O  0.13477858  0.91712140  0.62786849    -0.48300
O498        O  0.14328448  0.90811994  0.57336419    -0.54600
C499        C  0.13602031  0.84172581  0.59981815     0.85400
O500        O  0.19791044  0.87563521  0.63916625    -0.56500
O501        O  0.17701456  0.92373660  0.63437663    -0.59800
In502      In  0.38031255  0.89549900  0.38457275     1.36900
C503        C  0.39307720  0.86773638  0.43054929     0.77900
O504        O  0.39624007  0.92980396  0.41020587    -0.60500
O505        O  0.35431866  0.93005334  0.39927737    -0.51500
C506        C  0.41147513  0.90294537  0.33951891     0.70600
O507        O  0.40531668  0.92155654  0.35591637    -0.46300
C508        C  0.33053213  0.88137544  0.36747043     0.75300
O509        O  0.41064216  0.88154820  0.41752349    -0.58200
O510        O  0.33975465  0.90553463  0.36541123    -0.48300
O511        O  0.37099751  0.86473416  0.41769511    -0.54600
C512        C  0.37371144  0.94212605  0.41124443     0.85400
O513        O  0.40279642  0.87948512  0.34658535    -0.56500
O514        O  0.34773571  0.86391164  0.37601232    -0.59800
In515      In  0.37693583  0.89010240  0.59538128     1.36900
C516        C  0.36848258  0.94066454  0.57726779     0.77900
O517        O  0.40735938  0.91443984  0.61925462    -0.60500
O518        O  0.39855983  0.87493649  0.63465453    -0.51500
C519        C  0.33007112  0.87224843  0.61639776     0.70600
O520        O  0.33819118  0.89674776  0.61786006    -0.46300
C521        C  0.38806814  0.86673896  0.54694886     0.75300
O522        O  0.35014342  0.92660537  0.58876782    -0.58200
O523        O  0.40619990  0.86971230  0.56521063    -0.48300
O524        O  0.39067354  0.92817257  0.57369280    -0.54600
C525        C  0.41061262  0.89758968  0.63849263     0.85400
O526        O  0.34707691  0.85589319  0.60581364    -0.56500
O527        O  0.36442978  0.87294977  0.55470118    -0.59800
In528      In  0.16672994  0.88989071  0.39649419     1.36900
C529        C  0.16687142  0.91190207  0.44602017     0.77900
O530        O  0.17749643  0.92952544  0.37534122    -0.60500
O531        O  0.13548406  0.92046484  0.38006424    -0.51500
C532        C  0.21522408  0.87507735  0.37711838     0.70600
O533        O  0.20912591  0.87439596  0.40215309    -0.46300
C534        C  0.13846120  0.84252751  0.40268346     0.75300
O535        O  0.18843148  0.90482303  0.43397801    -0.58200
O536        O  0.13606716  0.85714071  0.38121278    -0.48300
O537        O  0.14532952  0.90838046  0.43229547    -0.54600
C538        C  0.15330007  0.93797755  0.37307409     0.85400
O539        O  0.19570142  0.88157608  0.36126757    -0.56500
O540        O  0.15546644  0.85190760  0.41950387    -0.59800
In541      In  0.66056710  0.89379163  0.59449130     1.36900
C542        C  0.63030728  0.90118987  0.63962986     0.77900
O543        O  0.69599304  0.86773927  0.61039712    -0.60500
O544        O  0.69832645  0.91115382  0.61244079    -0.51500
C545        C  0.64542993  0.86254934  0.55210709     0.70600
O546        O  0.62850963  0.87160690  0.56919297    -0.46300
C547        C  0.66163325  0.94047771  0.56619688     0.75300
O548        O  0.64094857  0.87816808  0.63436889    -0.58200
O549        O  0.68298467  0.92707794  0.57168996    -0.48300
O550        O  0.63441614  0.91906515  0.62148698    -0.54600
C551        C  0.71013588  0.88858327  0.61671807     0.85400
O552        O  0.66997152  0.86608657  0.55903105    -0.56500
O553        O  0.63981466  0.92903598  0.57377024    -0.59800
In554      In  0.65294643  0.11086759  0.39468515     1.36900
C555        C  0.63153127  0.10546064  0.34496886     0.77900
O556        O  0.69110031  0.13258069  0.37901480    -0.60500
O557        O  0.69387196  0.09250723  0.39651126    -0.51500
C558        C  0.64206210  0.14058435  0.43881089     0.70600
O559        O  0.66315902  0.14440969  0.42456835    -0.46300
C560        C  0.63842793  0.06302009  0.41598837     0.75300
O561        O  0.62536596  0.12614260  0.35931522    -0.58200
O562        O  0.66194568  0.07318061  0.41914695    -0.48300
O563        O  0.65016929  0.09083622  0.35492982    -0.54600
C564        C  0.70627001  0.11241925  0.38546729     0.85400
O565        O  0.62432974  0.12577071  0.42742897    -0.56500
O566        O  0.62190427  0.07809370  0.40301826    -0.59800
In567      In  0.66167318  0.09909139  0.59478161     1.36900
C568        C  0.66206070  0.05394082  0.56505051     0.77900
O569        O  0.64666734  0.11383180  0.63649098    -0.60500
O570        O  0.63369222  0.07520242  0.62213296    -0.51500
C571        C  0.71202277  0.09966104  0.61520255     0.70600
O572        O  0.69932153  0.07807518  0.60887906    -0.46300
C573        C  0.64801077  0.13317091  0.55380469     0.75300
O574        O  0.68316409  0.06835314  0.56860955    -0.58200
O575        O  0.63038183  0.12022970  0.56749412    -0.48300
O576        O  0.64054240  0.06383244  0.57504925    -0.54600
C577        C  0.63377687  0.09189281  0.64158093     0.85400
O578        O  0.69847158  0.12155088  0.61182667    -0.56500
O579        O  0.67161672  0.13213595  0.56400989    -0.59800
In580      In  0.64511239  0.89882703  0.39668959     1.36900
C581        C  0.63472435  0.94862105  0.41560160     0.77900
O582        O  0.64999702  0.90223988  0.35094359    -0.60500
O583        O  0.61052321  0.89355436  0.36586899    -0.51500
C584        C  0.69880821  0.89819240  0.38999747     0.70600
O585        O  0.68571943  0.91883359  0.39826973    -0.46300
C586        C  0.63182461  0.86571170  0.43866063     0.75300
O587        O  0.65384331  0.93389950  0.42480866    -0.58200
O588        O  0.61676192  0.88492785  0.43045138    -0.48300
O589        O  0.62061406  0.93752477  0.39711832    -0.54600
C590        C  0.62503240  0.90008086  0.34549828     0.85400
O591        O  0.68422800  0.87715502  0.38547597    -0.56500
O592        O  0.65106348  0.86035242  0.42251639    -0.59800
In593      In  0.87608768  0.10501184  0.40060304     1.36900
C594        C  0.88016726  0.09003708  0.45257555     0.77900
O595        O  0.90475055  0.06962927  0.39634643    -0.60500
O596        O  0.87900160  0.07806139  0.36264097    -0.51500
C597        C  0.82374489  0.10743005  0.38655641     0.70600
O598        O  0.83356513  0.09064571  0.40371666    -0.46300
C599        C  0.89773564  0.15487164  0.40654912     0.75300
O600        O  0.85763972  0.09053190  0.43998914    -0.58200
O601        O  0.90810697  0.13742308  0.39057843    -0.48300
O602        O  0.90053531  0.09643824  0.43822712    -0.54600
C603        C  0.89550819  0.06151707  0.37379795     0.85400
O604        O  0.84115730  0.12330983  0.37555340    -0.56500
O605        O  0.87516492  0.14774638  0.41651952    -0.59800
In606      In  0.87746112  0.89822707  0.61867227     1.36900
C607        C  0.87595927  0.91795047  0.56795047     0.77900
O608        O  0.88031505  0.92430280  0.65697111    -0.60500
O609        O  0.91129134  0.92830047  0.62728928    -0.51500
C610        C  0.82559673  0.89328455  0.63317228     0.70600
O611        O  0.84267889  0.87441888  0.63830917    -0.46300
C612        C  0.89744333  0.84846525  0.60761291     0.75300
O613        O  0.85485022  0.91357333  0.58193435    -0.58200
O614        O  0.90428536  0.86078961  0.62939570    -0.48300
O615        O  0.89807481  0.91432126  0.58075739    -0.54600
C616        C  0.90047967  0.93801347  0.64845861     0.85400
O617        O  0.83575094  0.91477478  0.62286241    -0.56500
O618        O  0.87992776  0.86100944  0.59355505    -0.59800
In619      In  0.88038497  0.09442905  0.62151969     1.36900
C620        C  0.89894671  0.14612838  0.61567784     0.77900
O621        O  0.90414711  0.08622790  0.58325462    -0.60500
O622        O  0.86116382  0.08103594  0.58236479    -0.51500
C623        C  0.90189762  0.05191305  0.64920111     0.70600
O624        O  0.88282359  0.06621312  0.65891907    -0.46300
C625        C  0.82763080  0.09433011  0.63277121     0.75300
O626        O  0.90825778  0.13060422  0.63444401    -0.58200
O627        O  0.83921117  0.07612277  0.61878541    -0.48300
O628        O  0.87906761  0.13599851  0.60295142    -0.54600
C629        C  0.88313950  0.08117443  0.56912496     0.85400
O630        O  0.91233020  0.06200036  0.62787611    -0.56500
O631        O  0.84356998  0.11209514  0.64300726    -0.59800
In632      In  0.86908134  0.90356128  0.39893416     1.36900
C633        C  0.89100917  0.85320126  0.40168511     0.77900
O634        O  0.89194868  0.91417204  0.43723792    -0.60500
O635        O  0.84872617  0.91403730  0.43835988    -0.51500
C636        C  0.89105625  0.94691978  0.37325097     0.70600
O637        O  0.90069913  0.93648787  0.39481050    -0.46300
C638        C  0.81643988  0.90211270  0.38571338     0.75300
O639        O  0.89816469  0.87033071  0.38343823    -0.58200
O640        O  0.82758948  0.92152283  0.39854139    -0.48300
O641        O  0.87169241  0.86135107  0.41639183    -0.54600
C642        C  0.87071590  0.91725372  0.45136160     0.85400
O643        O  0.87227160  0.93282993  0.36242535    -0.56500
O644        O  0.83279397  0.88376794  0.37766396    -0.59800
C645        C  0.95257005  0.24572580  0.57062089    -0.02200
C646        C  0.07473120  0.23993714  0.56433234    -0.02200
C647        C  0.07208288  0.24716019  0.44238030    -0.02200
C648        C  0.95155656  0.25492720  0.44797343    -0.02200
C649        C  0.02881971  0.27166278  0.45738091    -0.21000
C650        C  0.04116407  0.25465491  0.43765930    -0.09000
C651        C  0.02398181  0.24616079  0.41590957     0.29800
C652        C  0.99531564  0.24980813  0.41761383    -0.21000
C653        C  0.98297068  0.25843146  0.44232942    -0.09000
C654        C  0.00063084  0.27168831  0.46118343     0.29800
F655        F  0.99143552  0.28336214  0.48450282    -0.19600
H656        H  0.04123064  0.28171937  0.47275682     0.18200
H657        H  0.98267892  0.24301386  0.40072178     0.18200
F658        F  0.03433341  0.23419153  0.39326387    -0.19600
C659        C  0.05426609  0.22818737  0.51683843    -0.21000
C660        C  0.07684671  0.23765318  0.53226074    -0.09000
C661        C  0.10132789  0.24172226  0.51725116     0.29800
C662        C  0.10051473  0.24459783  0.48836685    -0.21000
C663        C  0.07591887  0.24034231  0.47364182    -0.09000
C664        C  0.05458854  0.22751958  0.48848672     0.29800
F665        F  0.03277070  0.21588512  0.47581846    -0.19600
H666        H  0.03583814  0.22071547  0.52649906     0.18200
H667        H  0.11892051  0.25067867  0.47772703     0.18200
F668        F  0.12561124  0.24460671  0.53044671    -0.19600
C669        C  0.99953372  0.22369114  0.58693985    -0.21000
C670        C  0.98472238  0.24480121  0.57349860    -0.09000
C671        C  0.00048930  0.26591414  0.56101375     0.29800
C672        C  0.02899799  0.26470882  0.56026137    -0.21000
C673        C  0.04364595  0.24256553  0.57186385    -0.09000
C674        C  0.02830339  0.22341767  0.58752145     0.29800
F675        F  0.04055343  0.20436529  0.60371462    -0.19600
H676        H  0.98944199  0.20671726  0.59681798     0.18200
H677        H  0.03976208  0.28053393  0.54892855     0.18200
F678        F  0.98813767  0.28755645  0.54846524    -0.19600
C679        C  0.93249968  0.26764417  0.52490337    -0.21000
C680        C  0.94807808  0.24727031  0.53868974    -0.09000
C681        C  0.96091677  0.22754839  0.52190155     0.29800
C682        C  0.96125003  0.23042015  0.49341312    -0.21000
C683        C  0.94708010  0.25170430  0.47967048    -0.09000
C684        C  0.93021965  0.26838487  0.49613629     0.29800
F685        F  0.91085810  0.28493021  0.48502997    -0.19600
H686        H  0.92156012  0.28320097  0.53579427     0.18200
H687        H  0.97340092  0.21603549  0.48197418     0.18200
F688        F  0.97442257  0.20590809  0.53316297    -0.19600
C689        C  0.94117069  0.21256477  0.61105011    -0.21000
C690        C  0.93745609  0.22007316  0.58310843    -0.09000
C691        C  0.91742920  0.20486407  0.56838208     0.29800
C692        C  0.90484494  0.18188352  0.57993201    -0.21000
C693        C  0.91105294  0.17278782  0.60652252    -0.09000
C694        C  0.92910119  0.18866516  0.62230647     0.29800
F695        F  0.93493910  0.18128901  0.64852108    -0.19600
H696        H  0.95437734  0.22478982  0.62399008     0.18200
H697        H  0.89031632  0.17071759  0.56742747     0.18200
F698        F  0.90838760  0.21241937  0.54316592    -0.19600
C699        C  0.92924826  0.98015253  0.64617770    -0.21000
C700        C  0.90792975  0.96563726  0.65897067    -0.09000
C701        C  0.88970645  0.98030850  0.67567483     0.29800
C702        C  0.88998387  0.00915123  0.67544583    -0.21000
C703        C  0.90862461  0.02367169  0.65889680    -0.09000
C704        C  0.92968093  0.00887117  0.64614281     0.29800
F705        F  0.94892364  0.02202356  0.63097995    -0.19600
H706        H  0.94396600  0.96943463  0.63367693     0.18200
H707        H  0.87380147  0.01996180  0.68588146     0.18200
F708        F  0.86957114  0.96705146  0.68953577    -0.19600
C709        C  0.84912112  0.92273698  0.52508827    -0.21000
C710        C  0.87457871  0.92389405  0.53839711    -0.09000
C711        C  0.89846729  0.92650194  0.52268123     0.29800
C712        C  0.89690008  0.92592038  0.49415287    -0.21000
C713        C  0.87159183  0.92266157  0.48093530    -0.09000
C714        C  0.84755313  0.92201822  0.49661264     0.29800
F715        F  0.82265210  0.91894343  0.48464134    -0.19600
H716        H  0.83041856  0.92072643  0.53673758     0.18200
H717        H  0.91565314  0.92671166  0.48245516     0.18200
F718        F  0.92343537  0.92799615  0.53477534    -0.19600
C719        C  0.94012263  0.18159431  0.41657546    -0.21000
C720        C  0.91155727  0.18051995  0.41513032    -0.09000
C721        C  0.89654974  0.20220264  0.42636863     0.29800
C722        C  0.90992804  0.22513046  0.43709805    -0.21000
C723        C  0.93874763  0.22768369  0.43666621    -0.09000
C724        C  0.95358837  0.20409145  0.42829793     0.29800
F725        F  0.98055253  0.20091241  0.43380359    -0.19600
H726        H  0.95207686  0.16404158  0.41034265     0.18200
H727        H  0.89757435  0.24146531  0.44542770     0.18200
F728        F  0.86883950  0.20121974  0.42723182    -0.19600
C729        C  0.85938638  0.07388523  0.49610372    -0.21000
C730        C  0.88234504  0.08363915  0.48193192    -0.09000
C731        C  0.90657418  0.08922837  0.49646460     0.29800
C732        C  0.90724534  0.08638800  0.52487354    -0.21000
C733        C  0.88378368  0.07824745  0.53921255    -0.09000
C734        C  0.86000865  0.07120659  0.52453804     0.29800
F735        F  0.83698164  0.06293364  0.53766634    -0.19600
H736        H  0.84058934  0.06927525  0.48527145     0.18200
H737        H  0.92569177  0.09213171  0.53576669     0.18200
F738        F  0.92908283  0.09911890  0.48353303    -0.19600
C739        C  0.88017404  0.99052441  0.34814002    -0.21000
C740        C  0.89851327  0.97516247  0.36431641    -0.09000
C741        C  0.92022177  0.98900738  0.37730396     0.29800
C742        C  0.92123043  0.01768657  0.37716416    -0.21000
C743        C  0.90066994  0.03316471  0.36418134    -0.09000
C744        C  0.88117243  0.01933595  0.34805132     0.29800
F745        F  0.86099776  0.03345851  0.33507971    -0.19600
H746        H  0.86329041  0.98043836  0.33789547     0.18200
H747        H  0.93665990  0.02777031  0.38950073     0.18200
F748        F  0.93886433  0.97502845  0.39258852    -0.19600
C749        C  0.74372815  0.87510032  0.38061412    -0.21000
C750        C  0.72879150  0.89908065  0.38602358    -0.09000
C751        C  0.74290986  0.92415281  0.38827997     0.29800
C752        C  0.77130119  0.92493930  0.38653666    -0.21000
C753        C  0.78640872  0.90090761  0.38239420    -0.09000
C754        C  0.77236250  0.87594679  0.37879061     0.29800
F755        F  0.78627862  0.85221339  0.37508511    -0.19600
H756        H  0.73332606  0.85558161  0.37862309     0.18200
H757        H  0.78158864  0.94444016  0.38926077     0.18200
F758        F  0.72940268  0.94800023  0.39274786    -0.19600
C759        C  0.75408307  0.07316461  0.62567006    -0.21000
C760        C  0.74084568  0.09870276  0.62446287    -0.09000
C761        C  0.75602161  0.12261711  0.62999861     0.29800
C762        C  0.78417951  0.12090984  0.63522225    -0.21000
C763        C  0.79758461  0.09547589  0.63448852    -0.09000
C764        C  0.78212540  0.07151290  0.63040414     0.29800
F765        F  0.79431140  0.04651528  0.62971602    -0.19600
H766        H  0.74294418  0.05437433  0.62168838     0.18200
H767        H  0.79579363  0.13964204  0.63794314     0.18200
F768        F  0.74406573  0.14769207  0.62892439    -0.19600
C769        C  0.65149104  0.01963317  0.43911563    -0.21000
C770        C  0.63197903  0.03469358  0.42425102    -0.09000
C771        C  0.60937543  0.02096299  0.41285372     0.29800
C772        C  0.60894726  0.99235250  0.41242490    -0.21000
C773        C  0.63069216  0.97730292  0.42378945    -0.09000
C774        C  0.65081603  0.99105810  0.43908686     0.29800
F775        F  0.67141963  0.97713871  0.45159114    -0.19600
H776        H  0.66864235  0.02987179  0.44875561     0.18200
H777        H  0.59275288  0.98209428  0.40127303     0.18200
F778        F  0.58923823  0.03493813  0.39962805    -0.19600
C779        C  0.61696982  0.14115896  0.48335367    -0.21000
C780        C  0.64026047  0.14845440  0.46810132    -0.09000
C781        C  0.66391817  0.15677363  0.48233916     0.29800
C782        C  0.66500433  0.15509737  0.51093990    -0.21000
C783        C  0.64282610  0.14464443  0.52598393    -0.09000
C784        C  0.61816924  0.13919787  0.51202177     0.29800
F785        F  0.59610854  0.12922062  0.52564150    -0.19600
H786        H  0.59850756  0.13456066  0.47299571     0.18200
H787        H  0.68425560  0.15943587  0.52105783     0.18200
F788        F  0.68715730  0.16333459  0.46866792    -0.19600
C789        C  0.74973709  0.08674755  0.38787338    -0.21000
C790        C  0.73627374  0.11135679  0.38137581    -0.09000
C791        C  0.75195805  0.13409400  0.37271770     0.29800
C792        C  0.78071114  0.13250891  0.37266408    -0.21000
C793        C  0.79396662  0.10828529  0.38118287    -0.09000
C794        C  0.77807789  0.08515302  0.38778038     0.29800
F795        F  0.78994772  0.06100859  0.39504998    -0.19600
H796        H  0.73831170  0.06865735  0.39394888     0.18200
H797        H  0.79255763  0.15054968  0.36734557     0.18200
F798        F  0.73969963  0.15802186  0.36543979    -0.19600
C799        C  0.68723226  0.98281318  0.55383933    -0.21000
C800        C  0.66225618  0.96861741  0.55500320    -0.09000
C801        C  0.63778141  0.98322382  0.55105964     0.29800
C802        C  0.63817449  0.01180302  0.55035864    -0.21000
C803        C  0.66285431  0.02606350  0.55377391    -0.09000
C804        C  0.68761711  0.01145982  0.55320263     0.29800
F805        F  0.71198696  0.02460338  0.55568268    -0.19600
H806        H  0.70638441  0.97195573  0.55632244     0.18200
H807        H  0.61889574  0.02269596  0.55013149     0.18200
F808        F  0.61325060  0.97018252  0.55100776    -0.19600
C809        C  0.61247603  0.86122742  0.51301414    -0.21000
C810        C  0.63756021  0.85280756  0.52439321    -0.09000
C811        C  0.65725425  0.84135040  0.50694333     0.29800
C812        C  0.65340119  0.84190780  0.47848929    -0.21000
C813        C  0.63010293  0.85429637  0.46692375    -0.09000
C814        C  0.60877338  0.86216437  0.48451702     0.29800
F815        F  0.58554850  0.87353784  0.47427802    -0.19600
H816        H  0.59683847  0.86994852  0.52593768     0.18200
H817        H  0.67006971  0.83543529  0.46552532     0.18200
F818        F  0.68144280  0.83220369  0.51712883    -0.19600
C819        C  0.75147218  0.91265564  0.63372278    -0.21000
C820        C  0.73875695  0.88774217  0.62686043    -0.09000
C821        C  0.75452308  0.86357792  0.62705326     0.29800
C822        C  0.78284631  0.86494639  0.63186450    -0.21000
C823        C  0.79571246  0.89037577  0.63624684    -0.09000
C824        C  0.77956084  0.91404948  0.63820664     0.29800
F825        F  0.79115839  0.93893376  0.64283217    -0.19600
H826        H  0.73988027  0.93155723  0.63417131     0.18200
H827        H  0.79495472  0.84647615  0.63004934     0.18200
F828        F  0.74304557  0.83903461  0.62079920    -0.19600
C829        C  0.28916769  0.85401623  0.37927624    -0.21000
C830        C  0.30117289  0.87492490  0.36341687    -0.09000
C831        C  0.28409498  0.89233996  0.34785960     0.29800
C832        C  0.25558057  0.89016821  0.34995022    -0.21000
C833        C  0.24374944  0.87116786  0.36812655    -0.09000
C834        C  0.26073841  0.85238711  0.38197146     0.29800
F835        F  0.24990667  0.83363088  0.39953838    -0.19600
H836        H  0.30181175  0.84040501  0.39151754     0.18200
H837        H  0.24287519  0.90499325  0.33929131     0.18200
F838        F  0.29492427  0.91257813  0.33202238    -0.19600
C839        C  0.41815771  0.86930884  0.47558294    -0.21000
C840        C  0.39608047  0.85946457  0.45986953    -0.09000
C841        C  0.37397572  0.84703772  0.47367902     0.29800
C842        C  0.37267631  0.84733013  0.50232728    -0.21000
C843        C  0.39356582  0.85938441  0.51797129    -0.09000
C844        C  0.41700516  0.86920218  0.50437997     0.29800
F845        F  0.43741764  0.88147438  0.51868254    -0.19600
H846        H  0.43534280  0.87916305  0.46561806     0.18200
H847        H  0.35443500  0.83959173  0.51226406     0.18200
F848        F  0.35237694  0.83674234  0.45953229    -0.19600
C849        C  0.25837466  0.84521210  0.60933270    -0.21000
C850        C  0.24409625  0.86362599  0.62604774    -0.09000
C851        C  0.25894438  0.88084802  0.64362346     0.29800
C852        C  0.28749968  0.88156219  0.64237074    -0.21000
C853        C  0.30173800  0.86480624  0.62397283     0.05400
C854        C  0.28702943  0.84538496  0.60864748     0.29800
F855        F  0.30007246  0.82873623  0.59078847    -0.19600
H856        H  0.24728210  0.83187098  0.59553360     0.18200
H857        H  0.29838634  0.89673999  0.65432031     0.18200
F858        F  0.24585642  0.89937818  0.65949904    -0.19600
C859        C  0.19015456  0.92503711  0.51816625    -0.21000
C860        C  0.16508825  0.92347207  0.53198855    -0.09000
C861        C  0.14064781  0.92482976  0.51678270     0.29800
C862        C  0.14145944  0.92372373  0.48824698    -0.21000
C863        C  0.16654520  0.92127288  0.47462340    -0.09000
C864        C  0.19096553  0.92381283  0.48965889     0.29800
F865        F  0.21564992  0.92267713  0.47713350    -0.19600
H866        H  0.20926319  0.92457278  0.52943261     0.18200
H867        H  0.12236781  0.92248675  0.47702094     0.18200
F868        F  0.11596443  0.92448706  0.52938065    -0.19600
C869        C  0.39329496  0.01237840  0.43479295    -0.21000
C870        C  0.36975534  0.02689979  0.42707138    -0.09000
C871        C  0.34562008  0.01237109  0.42105332     0.29800
C872        C  0.34627328  0.98390896  0.41894666    -0.21000
C873        C  0.37087055  0.96969646  0.42286795    -0.09000
C874        C  0.39382966  0.98382724  0.43300772     0.29800
F875        F  0.41752572  0.97045765  0.43863510    -0.19600
H876        H  0.41193281  0.02322107  0.43998390     0.18200
H877        H  0.32817698  0.97335789  0.41166102     0.18200
F878        F  0.32236284  0.02568250  0.41364415    -0.19600
C879        C  0.08459063  0.17389537  0.41147729    -0.21000
C880        C  0.11307496  0.17443526  0.40767027    -0.09000
C881        C  0.12726005  0.19849186  0.41433430     0.29800
C882        C  0.11347357  0.22128076  0.42433515    -0.21000
C883        C  0.08473845  0.22161156  0.42793139    -0.09000
C884        C  0.07063386  0.19679162  0.42221595     0.29800
F885        F  0.04383535  0.19370215  0.42832524    -0.19600
H886        H  0.07335100  0.15510837  0.40780026     0.18200
H887        H  0.12585751  0.23877424  0.42996962     0.18200
F888        F  0.15487861  0.19983278  0.41199821    -0.19600
C889        C  0.12215329  0.00886463  0.37619737    -0.21000
C890        C  0.14323854  0.02509871  0.36506917    -0.09000
C891        C  0.16498061  0.01182962  0.35177162     0.29800
C892        C  0.16697000  0.98311231  0.35241880    -0.21000
C893        C  0.14711114  0.96700183  0.36574958    -0.09000
C894        C  0.12393287  0.98013446  0.37644603     0.29800
F895        F  0.10437517  0.96549100  0.38973128    -0.19600
H896        H  0.10517482  0.01844599  0.38657332     0.18200
H897        H  0.18498237  0.97354091  0.34393055     0.18200
F898        F  0.18566088  0.02654079  0.34038931    -0.19600
C899        C  0.25214816  0.13981346  0.38939359    -0.21000
C900        C  0.23700339  0.11996524  0.37511457    -0.09000
C901        C  0.25082323  0.10118382  0.35847733     0.29800
C902        C  0.27943228  0.10112179  0.35777804    -0.21000
C903        C  0.29463322  0.12012525  0.37313678    -0.09000
C904        C  0.28074049  0.14018672  0.38815455     0.29800
F905        F  0.29478164  0.15822451  0.40394579    -0.19600
H906        H  0.24184494  0.15413130  0.40270308     0.18200
H907        H  0.28977972  0.08520577  0.34645308     0.18200
F908        F  0.23687744  0.08109153  0.34528008    -0.19600
C909        C  0.09139402  0.16305616  0.57895455    -0.21000
C910        C  0.11358996  0.16440967  0.59704396    -0.09000
C911        C  0.12374792  0.19022993  0.60433514     0.29800
C912        C  0.11201346  0.21419281  0.59342270    -0.21000
C913        C  0.08862496  0.21335975  0.57610014    -0.09000
C914        C  0.07904852  0.18685562  0.56868872     0.29800
F915        F  0.05708999  0.18353459  0.55208855    -0.19600
H916        H  0.08362012  0.14329588  0.57248189     0.18200
H917        H  0.12209755  0.23322629  0.59835227     0.18200
F918        F  0.14624044  0.19231212  0.62054266    -0.19600
C919        C  0.16842938  0.00503990  0.65947722    -0.21000
C920        C  0.14699428  0.01945019  0.64673131    -0.09000
C921        C  0.12454965  0.00452492  0.63650268     0.29800
C922        C  0.12510797  0.97571604  0.63640371    -0.21000
C923        C  0.14807299  0.96139860  0.64630184    -0.09000
C924        C  0.16896715  0.97632068  0.65943134     0.29800
F925        F  0.19110786  0.96329309  0.67011768    -0.19600
H926        H  0.18589865  0.01605302  0.66756940     0.18200
H927        H  0.10883420  0.96479541  0.62603014     0.18200
F928        F  0.10377772  0.01761635  0.62339312    -0.19600
C929        C  0.18724704  0.06656381  0.51776735    -0.21000
C930        C  0.16268183  0.06560456  0.53245552    -0.09000
C931        C  0.13778805  0.06319046  0.51816391     0.29800
C932        C  0.13742187  0.06539935  0.48972329    -0.21000
C933        C  0.16175979  0.06986428  0.47527862    -0.09000
C934        C  0.18687888  0.06862975  0.48929834     0.29800
F935        F  0.21092229  0.07199783  0.47590134    -0.19600
H936        H  0.20666849  0.06800251  0.52838923     0.18200
H937        H  0.11788379  0.06567937  0.47922036     0.18200
F938        F  0.11359424  0.06161547  0.53161051    -0.19600
C939        C  0.28225275  0.11311682  0.64696123    -0.21000
C940        C  0.29569321  0.12803546  0.62623846    -0.09000
C941        C  0.27998606  0.14390184  0.60789357     0.29800
C942        C  0.25142766  0.14209487  0.60828017    -0.21000
C943        C  0.23807038  0.12514132  0.62741550    -0.09000
C944        C  0.25364709  0.11200902  0.64787371     0.29800
F945        F  0.24144170  0.09568243  0.66687574    -0.19600
H946        H  0.29392529  0.10081954  0.66137842     0.18200
H947        H  0.23980813  0.15252958  0.59242423     0.18200
F948        F  0.29213471  0.15868353  0.58765185    -0.19600
C949        C  0.34136130  0.98344132  0.57995729    -0.21000
C950        C  0.36510044  0.97004915  0.57119173    -0.09000
C951        C  0.38697824  0.98568772  0.56086078     0.29800
C952        C  0.38616193  0.01424320  0.56218065    -0.21000
C953        C  0.36361501  0.02753055  0.57378778    -0.09000
C954        C  0.34055292  0.01198648  0.58130284     0.29800
F955        F  0.31802930  0.02410449  0.59189857    -0.19600
H956        H  0.32410341  0.97181188  0.58766179     0.18200
H957        H  0.40398875  0.02582770  0.55583579     0.18200
F958        F  0.40997854  0.97347799  0.55143456    -0.19600
C959        C  0.37055540  0.15390148  0.51006072    -0.21000
C960        C  0.39146308  0.14169495  0.52566989    -0.09000
C961        C  0.41497646  0.13239097  0.51203374     0.29800
C962        C  0.41562851  0.13180537  0.48322466    -0.21000
C963        C  0.39314348  0.14104208  0.46762890    -0.09000
C964        C  0.37148706  0.15397768  0.48140416     0.29800
F965        F  0.34978299  0.16423653  0.46732448    -0.19600
H966        H  0.35239709  0.16157400  0.52003624     0.18200
H967        H  0.43271783  0.12200015  0.47325261     0.18200
F968        F  0.43593345  0.12098519  0.52636482    -0.19600
C969        C  0.92635755  0.32974010  0.43166024    -0.21000
C970        C  0.91180579  0.32665055  0.40705544    -0.09000
C971        C  0.91115031  0.30051805  0.39515618     0.29800
C972        C  0.92396863  0.27809858  0.40808587    -0.21000
C973        C  0.93748850  0.28049368  0.43381551    -0.09000
C974        C  0.93974152  0.30753060  0.44427103     0.29800
F975        F  0.95432989  0.31294858  0.46716789    -0.19600
H976        H  0.92855053  0.34987969  0.44066435     0.18200
H977        H  0.92373797  0.25889071  0.39716993     0.18200
F978        F  0.89878712  0.29665564  0.37054961    -0.19600
C979        C  0.88343277  0.37887316  0.26421457    -0.21000
C980        C  0.90688902  0.38083610  0.28085392    -0.09000
C981        C  0.93277819  0.38079092  0.26828583     0.29800
C982        C  0.93496899  0.38108853  0.23982379    -0.21000
C983        C  0.91158355  0.38072938  0.22319987    -0.09000
C984        C  0.88573396  0.37869039  0.23553095     0.29800
F985        F  0.86272149  0.37869239  0.21993664    -0.19600
H986        H  0.86329654  0.37883458  0.27333782     0.18200
H987        H  0.95508435  0.38237532  0.23069118     0.18200
F988        F  0.95610506  0.38152859  0.28341415    -0.19600
C989        C  0.85398786  0.48680775  0.34797953    -0.21000
C990        C  0.86292898  0.47391281  0.37225420    -0.09000
C991        C  0.86863223  0.49050241  0.39513609     0.29800
C992        C  0.86889860  0.51922250  0.39261214    -0.21000
C993        C  0.86360188  0.53197772  0.36725039    -0.09000
C994        C  0.85430349  0.51554198  0.34544245     0.29800
F995        F  0.84773205  0.52707578  0.32090620    -0.19600
H996        H  0.84918577  0.47467466  0.33009114     0.18200
H997        H  0.87580004  0.53128659  0.40986042     0.18200
F998        F  0.87637448  0.47899061  0.41932463    -0.19600
C999        C  0.87046188  0.62659399  0.22897364    -0.21000
C1000       C  0.89255543  0.63931610  0.21571326    -0.09000
C1001       C  0.91250455  0.65268698  0.23146909     0.29800
C1002       C  0.91169165  0.65092134  0.26012598    -0.21000
C1003       C  0.89074771  0.63619298  0.27344569    -0.09000
C1004       C  0.86928083  0.62533614  0.25759798     0.29800
F1005       F  0.84865524  0.61100957  0.26952699    -0.19600
H1006       H  0.85509463  0.61587258  0.21709938     0.18200
H1007       H  0.92846071  0.65950345  0.27182696     0.18200
F1008       F  0.93439838  0.66464368  0.21920657    -0.19600
C1009       C  0.94058341  0.52235083  0.11053972    -0.21000
C1010       C  0.94210052  0.53675678  0.13530319    -0.09000
C1011       C  0.94731757  0.52226685  0.15975285     0.29800
C1012       C  0.94849647  0.49369060  0.15961099    -0.21000
C1013       C  0.94433027  0.47914373  0.13522072    -0.09000
C1014       C  0.94160817  0.49374963  0.11041912     0.29800
F1015       F  0.93795416  0.48050132  0.08631975    -0.19600
H1016       H  0.93680665  0.53309862  0.09140897     0.18200
H1017       H  0.95087072  0.48291031  0.17894764     0.18200
F1018       F  0.94923050  0.53544606  0.18408956    -0.19600
C1019       C  0.10306560  0.30021352  0.39215616    -0.21000
C1020       C  0.11190974  0.32167372  0.40893598    -0.09000
C1021       C  0.10807450  0.31903019  0.43743336     0.29800
C1022       C  0.09573032  0.29526778  0.44860710    -0.21000
C1023       C  0.08694036  0.27349200  0.43163857    -0.09000
C1024       C  0.09025330  0.27708594  0.40299905     0.29800
F1025       F  0.08103888  0.25809702  0.38501045    -0.19600
H1026       H  0.10489002  0.30177793  0.37009635     0.18200
H1027       H  0.09215694  0.29462933  0.47042095     0.18200
F1028       F  0.11515181  0.33980912  0.45440239    -0.19600
C1029       C  0.99604336  0.41093773  0.39852712    -0.21000
C1030       C  0.98258351  0.42162388  0.37540115    -0.09000
C1031       C  0.99793645  0.43370850  0.35424016     0.29800
C1032       C  0.02639335  0.43238555  0.35502380    -0.21000
C1033       C  0.03972491  0.41903931  0.37683536    -0.09000
C1034       C  0.02440754  0.40955236  0.39929090     0.29800
F1035       F  0.03661592  0.39733132  0.42119938    -0.19600
H1036       H  0.98460085  0.40191731  0.41528553     0.18200
H1037       H  0.03786960  0.44019413  0.33770626     0.18200
F1038       F  0.98556536  0.44485068  0.33187068    -0.19600
C1039       C  0.03499293  0.34148059  0.14130866    -0.21000
C1040       C  0.05023222  0.35417839  0.12039509    -0.09000
C1041       C  0.03615331  0.36467231  0.09742123     0.29800
C1042       C  0.00755664  0.36619674  0.09738124    -0.21000
C1043       C  0.99240334  0.35703361  0.12007833    -0.09000
C1044       C  0.00629364  0.34281104  0.14119595     0.29800
F1045       F  0.99252543  0.33303558  0.16329650    -0.19600
H1046       H  0.04525656  0.33313977  0.15920042     0.18200
H1047       H  0.99745867  0.37676889  0.08059790     0.18200
F1048       F  0.05010946  0.37591284  0.07613860    -0.19600
C1049       C  0.09946107  0.37497437  0.24232044    -0.21000
C1050       C  0.12421624  0.37233624  0.22821740    -0.09000
C1051       C  0.14864244  0.37001454  0.24337700     0.29800
C1052       C  0.14823318  0.37243421  0.27208136    -0.21000
C1053       C  0.12349602  0.37702620  0.28594939    -0.09000
C1054       C  0.09897750  0.37715525  0.27074879     0.29800
F1055       F  0.07442907  0.38044062  0.28315377    -0.19600
H1056       H  0.08033994  0.37647915  0.23114811     0.18200
H1057       H  0.16735759  0.37195117  0.28330239     0.18200
F1058       F  0.17298752  0.36742985  0.23044007    -0.19600
C1059       C  0.03253866  0.66140162  0.12642821    -0.21000
C1060       C  0.04514768  0.64341260  0.10802629    -0.09000
C1061       C  0.02851678  0.62919327  0.08915035     0.29800
C1062       C  0.99990856  0.63072556  0.09085153    -0.21000
C1063       C  0.98742616  0.64596020  0.11167475    -0.09000
C1064       C  0.00399032  0.66244651  0.12848855     0.29800
F1065       F  0.99264561  0.67784340  0.14848454    -0.19600
H1066       H  0.04471862  0.67260254  0.14118336     0.18200
H1067       H  0.98764362  0.61777499  0.07768420     0.18200
F1068       F  0.03977012  0.61191144  0.07066121    -0.19600
C1069       C  0.09795831  0.51359994  0.11557418    -0.21000
C1070       C  0.09989490  0.52881611  0.13980380    -0.09000
C1071       C  0.10076001  0.51502637  0.16515879     0.29800
C1072       C  0.10197713  0.48651058  0.16600950    -0.21000
C1073       C  0.10224571  0.47136794  0.14169003    -0.09000
C1074       C  0.09908809  0.48503919  0.11643318     0.29800
F1075       F  0.09870694  0.47103424  0.09250005    -0.19600
H1076       H  0.09701549  0.52382232  0.09582431     0.18200
H1077       H  0.10396102  0.47635269  0.18571985     0.18200
F1078       F  0.10199403  0.52902909  0.18906749    -0.19600
C1079       C  0.15047147  0.62788001  0.25859665    -0.21000
C1080       C  0.12630292  0.63224773  0.27346289    -0.09000
C1081       C  0.10285738  0.64126575  0.25914332     0.29800
C1082       C  0.10268611  0.64240279  0.23054480    -0.21000
C1083       C  0.12604624  0.63559839  0.21557615    -0.09000
C1084       C  0.15045014  0.62980012  0.22982235     0.29800
F1085       F  0.17347444  0.62326541  0.21592119    -0.19600
H1086       H  0.16885498  0.62114373  0.26904375     0.18200
H1087       H  0.08376242  0.64721562  0.21998131     0.18200
F1088       F  0.07941650  0.64724242  0.27261603    -0.19600
C1089       C  0.99503967  0.57539963  0.32055081    -0.21000
C1090       C  0.98070518  0.57178184  0.34516392    -0.09000
C1091       C  0.99504685  0.56344336  0.36879958     0.29800
C1092       C  0.02355429  0.56231469  0.36851352    -0.21000
C1093       C  0.03804794  0.56933718  0.34470867    -0.09000
C1094       C  0.02351081  0.57415244  0.32022080     0.29800
F1095       F  0.03670687  0.58036990  0.29655875    -0.19600
H1096       H  0.98439304  0.58135183  0.30195319     0.18200
H1097       H  0.03430558  0.55812254  0.38751419     0.18200
F1098       F  0.98183547  0.55884852  0.39279348    -0.19600
C1099       C  0.16860257  0.48297152  0.35533222    -0.21000
C1100       C  0.15857807  0.47085482  0.37950654    -0.09000
C1101       C  0.15138583  0.48813379  0.40133854     0.29800
C1102       C  0.15074117  0.51672432  0.39762781    -0.21000
C1103       C  0.15701736  0.52856806  0.37206182    -0.09000
C1104       C  0.16774752  0.51152900  0.35154246     0.29800
F1105       F  0.17518453  0.52218352  0.32691585    -0.19600
H1106       H  0.17450741  0.47025807  0.33824733     0.18200
H1107       H  0.14273906  0.52929865  0.41393318     0.18200
F1108       F  0.14258285  0.47732625  0.42544503    -0.19600
C1109       C  0.22343833  0.40495569  0.06354237    -0.21000
C1110       C  0.24281466  0.42250247  0.07616397    -0.09000
C1111       C  0.24037355  0.42616886  0.10483533     0.29800
C1112       C  0.21810294  0.41542794  0.11929939    -0.21000
C1113       C  0.19773852  0.40003578  0.10609341    -0.09000
C1114       C  0.20098023  0.39435057  0.07810931     0.29800
F1115       F  0.18179771  0.37964117  0.06442347    -0.19600
H1116       H  0.22520101  0.39940769  0.04226419     0.18200
H1117       H  0.21636282  0.41998121  0.14090324     0.18200
F1118       F  0.25881411  0.44161876  0.11874367    -0.19600
C1119       C  0.24340967  0.43853035  0.98414300    -0.21000
C1120       C  0.26659525  0.42975306  0.96939435    -0.09000
C1121       C  0.29022265  0.42348190  0.98520958     0.29800
C1122       C  0.28971905  0.42416973  0.01390907    -0.21000
C1123       C  0.26618798  0.43196120  0.02867769    -0.09000
C1124       C  0.24325048  0.44005546  0.01283690     0.29800
F1125       F  0.22064736  0.45032362  0.02503464    -0.19600
H1126       H  0.22537909  0.44533056  0.97314068     0.18200
H1127       H  0.30890204  0.42041683  0.02426981     0.18200
F1128       F  0.31496766  0.41944424  0.97355462    -0.19600
C1129       C  0.28716177  0.48122377  0.94371752    -0.21000
C1130       C  0.26512876  0.46533610  0.93385622    -0.09000
C1131       C  0.24136642  0.48001912  0.92544379     0.29800
C1132       C  0.24105592  0.50879852  0.92468909    -0.21000
C1133       C  0.26361654  0.52452247  0.93352044    -0.09000
C1134       C  0.28643606  0.50987827  0.94387468     0.29800
F1135       F  0.30830234  0.52336427  0.95444306    -0.19600
H1136       H  0.30514789  0.47120531  0.95197989     0.18200
H1137       H  0.22205043  0.51853818  0.91893623     0.18200
F1138       F  0.21723963  0.46729052  0.92036545    -0.19600
C1139       C  0.22118705  0.58974622  0.05740460    -0.21000
C1140       C  0.24006611  0.57301381  0.07205206    -0.09000
C1141       C  0.23598404  0.57029424  0.10061629     0.29800
C1142       C  0.21298888  0.58151612  0.11321960    -0.21000
C1143       C  0.19353867  0.59656677  0.09816688    -0.09000
C1144       C  0.19819110  0.60109328  0.07016210     0.29800
F1145       F  0.18006302  0.61563968  0.05480649    -0.19600
H1146       H  0.22403531  0.59458171  0.03599541     0.18200
H1147       H  0.21013192  0.57790505  0.13493866     0.18200
F1148       F  0.25391776  0.55590799  0.11635993    -0.19600
C1149       C  0.28884548  0.48379521  0.05264851    -0.21000
C1150       C  0.26671659  0.46854620  0.06337437    -0.09000
C1151       C  0.24389954  0.48393198  0.07253581     0.29800
C1152       C  0.24431628  0.51270858  0.07251944    -0.21000
C1153       C  0.26695362  0.52791323  0.06282819    -0.09000
C1154       C  0.28907862  0.51253836  0.05231402     0.29800
F1155       F  0.31082898  0.52533901  0.04068137    -0.19600
H1156       H  0.30612348  0.47321799  0.04386187     0.18200
H1157       H  0.22565657  0.52279797  0.07843987     0.18200
F1158       F  0.21982266  0.47186253  0.07916403    -0.19600
C1159       C  0.24278066  0.55110490  0.01254626    -0.21000
C1160       C  0.26510619  0.56290808  0.02667897    -0.09000
C1161       C  0.28686252  0.57322702  0.01046179     0.29800
C1162       C  0.28570949  0.57209890  0.98181673    -0.21000
C1163       C  0.26300195  0.56089380  0.96776293    -0.09000
C1164       C  0.24159199  0.55017928  0.98401268     0.29800
F1165       F  0.21941215  0.53827664  0.97225808    -0.19600
H1166       H  0.22605493  0.54201666  0.02391471     0.18200
H1167       H  0.30382850  0.57857595  0.97101874     0.18200
F1168       F  0.31058590  0.58226885  0.02162314    -0.19600
C1169       C  0.19782723  0.60116624  0.91946679    -0.21000
C1170       C  0.19325947  0.59465681  0.89191631    -0.09000
C1171       C  0.21180335  0.57703214  0.87893538     0.29800
C1172       C  0.23323018  0.56494577  0.89363520    -0.21000
C1173       C  0.23709882  0.56969383  0.92189029    -0.09000
C1174       C  0.21959505  0.58937921  0.93423963     0.29800
F1175       F  0.22366367  0.59842103  0.96012276    -0.19600
H1176       H  0.18412148  0.61502838  0.92985895     0.18200
H1177       H  0.24695069  0.55142369  0.88283560     0.18200
F1178       F  0.20906443  0.57104999  0.85195267    -0.19600
C1179       C  0.00077527  0.63727601  0.89777158    -0.21000
C1180       C  0.98653093  0.64464071  0.87376261    -0.09000
C1181       C  0.00151505  0.65567485  0.85165689     0.29800
C1182       C  0.03018545  0.65611783  0.85248882    -0.21000
C1183       C  0.04446183  0.64548021  0.87523341    -0.09000
C1184       C  0.02941473  0.63765573  0.89856794     0.29800
F1185       F  0.04229666  0.62784055  0.92126312    -0.19600
H1186       H  0.98986000  0.62890401  0.91519392     0.18200
H1187       H  0.04115661  0.66229757  0.83422840     0.18200
F1188       F  0.98874515  0.66323958  0.82807240    -0.19600
C1189       C  0.95825870  0.51262935  0.85406314    -0.21000
C1190       C  0.94309788  0.52657856  0.87391963    -0.09000
C1191       C  0.93230295  0.51184929  0.89627643     0.29800
C1192       C  0.93441253  0.48334137  0.89715927    -0.21000
C1193       C  0.94680981  0.46918742  0.87559907    -0.09000
C1194       C  0.96007087  0.48411010  0.85477022     0.29800
F1195       F  0.97268755  0.47115579  0.83379985    -0.19600
H1196       H  0.96703155  0.52360579  0.83683535     0.18200
H1197       H  0.92406382  0.47226572  0.91341240     0.18200
F1198       F  0.91737555  0.52454340  0.91582296    -0.19600
C1199       C  0.20101933  0.39003201  0.92054603    -0.21000
C1200       C  0.19597479  0.39839333  0.89344050    -0.09000
C1201       C  0.21580046  0.41453709  0.88011899     0.29800
C1202       C  0.23889737  0.42377012  0.89426070    -0.21000
C1203       C  0.24243691  0.41863666  0.92258605    -0.09000
C1204       C  0.22404968  0.39964806  0.93496313     0.29800
F1205       F  0.22818282  0.38968062  0.96062133    -0.19600
H1206       H  0.18652375  0.37686766  0.93102097     0.18200
H1207       H  0.25321950  0.43686142  0.88345571     0.18200
F1208       F  0.21236523  0.42249427  0.85362527    -0.19600
C1209       C  0.10601880  0.51382924  0.89765653    -0.21000
C1210       C  0.09112094  0.52787997  0.87738383    -0.09000
C1211       C  0.07414899  0.51301447  0.85953327     0.29800
C1212       C  0.07497150  0.48441475  0.85972650    -0.21000
C1213       C  0.09258834  0.47043422  0.87774570    -0.09000
C1214       C  0.10685678  0.48526874  0.89786585     0.29800
F1215       F  0.12384275  0.47248731  0.91589906    -0.19600
H1216       H  0.11900389  0.52488894  0.91182674     0.18200
H1217       H  0.06336872  0.47332497  0.84443175     0.18200
F1218       F  0.05849464  0.52602620  0.84047624    -0.19600
C1219       C  0.03280639  0.35747310  0.90271370    -0.21000
C1220       C  0.04677233  0.35065216  0.87857211    -0.09000
C1221       C  0.03169555  0.33919480  0.85681675     0.29800
C1222       C  0.00307689  0.33818250  0.85789584    -0.21000
C1223       C  0.98894658  0.34869227  0.88053313    -0.09000
C1224       C  0.00417669  0.35641902  0.90379570     0.29800
F1225       F  0.99143194  0.36567448  0.92657601    -0.19600
H1226       H  0.04385000  0.36597504  0.91995572     0.18200
H1227       H  0.99197888  0.33192674  0.83974152     0.18200
F1228       F  0.04422207  0.33196591  0.83320033    -0.19600
C1229       C  0.13388286  0.62445573  0.72849349    -0.21000
C1230       C  0.12073519  0.60210914  0.71588597    -0.09000
C1231       C  0.10771984  0.58236731  0.73242510     0.29800
C1232       C  0.10810655  0.58469410  0.76074254    -0.21000
C1233       C  0.12112410  0.60685252  0.77359227    -0.09000
C1234       C  0.13388166  0.62701883  0.75720955     0.29800
F1235       F  0.14633347  0.64899021  0.76879775    -0.19600
H1236       H  0.14379096  0.64006436  0.71612966     0.18200
H1237       H  0.09793657  0.56890582  0.77267405     0.18200
F1238       F  0.09480329  0.56039053  0.72132595    -0.19600
C1239       C  0.09879475  0.29464987  0.61683254    -0.21000
C1240       C  0.11165580  0.31479175  0.60071555    -0.09000
C1241       C  0.11229288  0.31101757  0.57222346     0.29800
C1242       C  0.09989680  0.28791712  0.56028760    -0.21000
C1243       C  0.08810200  0.26667147  0.57641299    -0.09000
C1244       C  0.08707055  0.27126632  0.60506086     0.29800
F1245       F  0.07456273  0.25293109  0.62192006    -0.19600
H1246       H  0.09717211  0.29730205  0.63877327     0.18200
H1247       H  0.09884250  0.28778056  0.53827399     0.18200
F1248       F  0.12338326  0.33048694  0.55561893    -0.19600
C1249       C  0.15186294  0.50829748  0.58920508    -0.21000
C1250       C  0.15923856  0.52286224  0.61287042    -0.09000
C1251       C  0.17163151  0.50828897  0.63465962     0.29800
C1252       C  0.17307391  0.47951257  0.63409552    -0.21000
C1253       C  0.16210798  0.46478713  0.61194180    -0.09000
C1254       C  0.15326248  0.47958536  0.58867848     0.29800
F1255       F  0.14330544  0.46625305  0.56645052    -0.19600
H1256       H  0.14258066  0.51890341  0.57197551     0.18200
H1257       H  0.18005978  0.46873083  0.65227821     0.18200
F1258       F  0.17942749  0.52141412  0.65784523    -0.19600
C1259       C  0.14467976  0.36952113  0.73261254    -0.21000
C1260       C  0.13179604  0.39051516  0.71751437    -0.09000
C1261       C  0.11880518  0.41181168  0.73167509     0.29800
C1262       C  0.11762024  0.41150018  0.76015810    -0.21000
C1263       C  0.12919887  0.38993293  0.77543690    -0.09000
C1264       C  0.14328340  0.36909507  0.76143174     0.29800
F1265       F  0.15523418  0.34816517  0.77545091    -0.19600
H1266       H  0.15487469  0.35296691  0.72210365     0.18200
H1267       H  0.10703602  0.42808159  0.77024832     0.18200
F1268       F  0.10702531  0.43304672  0.71791355    -0.19600
C1269       C  0.90423415  0.30361736  0.59699249    -0.21000
C1270       C  0.92257635  0.32084683  0.61084907    -0.09000
C1271       C  0.94957813  0.31174827  0.61470364     0.29800
C1272       C  0.95848749  0.28738579  0.60310823    -0.21000
C1273       C  0.94126731  0.27124524  0.58631047    -0.09000
C1274       C  0.91317334  0.27861318  0.58579166     0.29800
F1275       F  0.89445080  0.26227068  0.57339276    -0.19600
H1276       H  0.88303716  0.30955591  0.59467553     0.18200
H1277       H  0.97937603  0.28174204  0.60745887     0.18200
F1278       F  0.96809906  0.32693593  0.62884113    -0.19600
C1279       C  0.00296655  0.43734193  0.63984556    -0.21000
C1280       C  0.98783659  0.42526274  0.61861071    -0.09000
C1281       C  0.00178993  0.41407309  0.59616549     0.29800
C1282       C  0.03021390  0.41166429  0.59693277    -0.21000
C1283       C  0.04502390  0.42069329  0.61984256    -0.09000
C1284       C  0.03137559  0.43520394  0.64047364     0.29800
F1285       F  0.04514694  0.44543954  0.66233817    -0.19600
H1286       H  0.99272526  0.44660740  0.65708996     0.18200
H1287       H  0.04039949  0.40107727  0.58043791     0.18200
F1288       F  0.98795862  0.40340959  0.57456121    -0.19600
C1289       C  0.92767273  0.40667494  0.73320472    -0.21000
C1290       C  0.90510784  0.39566102  0.71929118    -0.09000
C1291       C  0.88472643  0.38196837  0.73449676     0.29800
C1292       C  0.88728275  0.37936551  0.76314390    -0.21000
C1293       C  0.91006138  0.39049165  0.77685205    -0.09000
C1294       C  0.93021461  0.40416424  0.76143164     0.29800
F1295       F  0.95279074  0.41498127  0.77351574    -0.19600
H1296       H  0.94381755  0.41715631  0.72216103     0.18200
H1297       H  0.87136296  0.36901163  0.77460656     0.18200
F1298       F  0.86240154  0.37133234  0.72183390    -0.19600
C1299       C  0.99409561  0.55259555  0.63734221    -0.21000
C1300       C  0.98038669  0.56678641  0.61630841    -0.09000
C1301       C  0.99524642  0.57614254  0.59347904     0.29800
C1302       C  0.02372251  0.57469657  0.59366616    -0.21000
C1303       C  0.03761680  0.56383322  0.61648304    -0.09000
C1304       C  0.02254852  0.55094218  0.63741781     0.29800
F1305       F  0.03525122  0.53894672  0.65916108    -0.19600
H1306       H  0.98295628  0.54456845  0.65478635     0.18200
H1307       H  0.03489325  0.58431054  0.57705269     0.18200
F1308       F  0.98262794  0.58922024  0.57232004    -0.19600
C1309       C  0.84911695  0.51282678  0.62775251    -0.21000
C1310       C  0.86280701  0.52751711  0.60702367    -0.09000
C1311       C  0.87433436  0.51265495  0.58527386     0.29800
C1312       C  0.87584682  0.48396837  0.58661802    -0.21000
C1313       C  0.86579681  0.46954627  0.60950417    -0.09000
C1314       C  0.85050899  0.48408584  0.62901256     0.29800
F1315       F  0.83953210  0.47094466  0.65097381    -0.19600
H1316       H  0.83978510  0.52362487  0.64461212     0.18200
H1317       H  0.88732775  0.47334348  0.57102842     0.18200
F1318       F  0.88708028  0.52583951  0.56431929    -0.19600
C1319       C  0.90398724  0.57941733  0.72989503    -0.21000
C1320       C  0.89619803  0.60267380  0.71475056    -0.09000
C1321       C  0.88968985  0.62692299  0.72881995     0.29800
C1322       C  0.89205809  0.62789984  0.75753968    -0.21000
C1323       C  0.90096987  0.60476780  0.77246447    -0.09000
C1324       C  0.90630320  0.58031637  0.75827061     0.29800
F1325       F  0.91413287  0.55712959  0.77170946    -0.19600
H1326       H  0.90882855  0.56039522  0.71965521     0.18200
H1327       H  0.88772651  0.64691333  0.76799275     0.18200
F1328       F  0.88233920  0.64992543  0.71484477    -0.19600
C1329       C  0.42525883  0.10729085  0.30168477    -0.21000
C1330       C  0.41621091  0.08787424  0.32096780    -0.09000
C1331       C  0.42070770  0.05992322  0.31560855     0.29800
C1332       C  0.43310189  0.05155984  0.29145087    -0.21000
C1333       C  0.44146359  0.07056030  0.27117820    -0.09000
C1334       C  0.43797257  0.09885518  0.27729050     0.29800
F1335       F  0.44696416  0.11844134  0.25956978    -0.19600
H1336       H  0.42241828  0.12896879  0.30541853     0.18200
H1337       H  0.43756691  0.02999219  0.29000425     0.18200
F1338       F  0.41410304  0.04031184  0.33435407    -0.19600
C1339       C  0.57956264  0.93128373  0.29090199    -0.21000
C1340       C  0.59444352  0.92759969  0.26635154    -0.09000
C1341       C  0.62116040  0.91638220  0.26937713     0.29800
C1342       C  0.63034090  0.90626392  0.29479733    -0.21000
C1343       C  0.61386173  0.90759127  0.31819097    -0.09000
C1344       C  0.58852295  0.92071150  0.31603951     0.29800
F1345       F  0.57289570  0.92469883  0.33857439    -0.19600
H1346       H  0.56016638  0.94164246  0.29080402     0.18200
H1347       H  0.65083196  0.89801005  0.29634344     0.18200
F1348       F  0.63949598  0.91672502  0.24862426    -0.19600
C1349       C  0.42770549  0.90868361  0.26388562    -0.21000
C1350       C  0.44995759  0.92746508  0.26308571    -0.09000
C1351       C  0.45926749  0.93756486  0.28868883     0.29800
C1352       C  0.44730549  0.92884122  0.31338749    -0.21000
C1353       C  0.42626867  0.90920222  0.31368497    -0.09000
C1354       C  0.41684548  0.89895288  0.28866230     0.29800
F1355       F  0.39575450  0.88083013  0.28801359    -0.19600
H1356       H  0.41771928  0.90160352  0.24555779     0.18200
H1357       H  0.45448434  0.93758029  0.33244749     0.18200
F1358       F  0.47999580  0.95607613  0.28986849    -0.19600
C1359       C  0.48377856  0.98750450  0.23188784    -0.21000
C1360       C  0.46103886  0.97029788  0.23624305    -0.09000
C1361       C  0.43587713  0.98395379  0.24104425     0.29800
C1362       C  0.43446781  0.01294196  0.24231523    -0.21000
C1363       C  0.45826508  0.02951417  0.24094048    -0.09000
C1364       C  0.48240554  0.01583756  0.23314173     0.29800
F1365       F  0.50485073  0.02948259  0.22434935    -0.19600
H1366       H  0.50343432  0.98007786  0.22655790     0.18200
H1367       H  0.41478230  0.02243709  0.24562344     0.18200
F1368       F  0.41247124  0.96929500  0.24404261    -0.19600
C1369       C  0.50874805  0.93525554  0.20929260    -0.21000
C1370       C  0.49391543  0.92831745  0.23315746    -0.09000
C1371       C  0.50844261  0.91220686  0.25272598     0.29800
C1372       C  0.53719080  0.91081726  0.25191622    -0.21000
C1373       C  0.55215481  0.92696055  0.23299412    -0.09000
C1374       C  0.53735568  0.93605811  0.20966183     0.29800
F1375       F  0.55007522  0.94864131  0.18841978    -0.19600
H1376       H  0.49832570  0.94449879  0.19194033     0.18200
H1377       H  0.54738820  0.89862447  0.26738777     0.18200
F1378       F  0.49552739  0.89765986  0.27259212    -0.19600
C1379       C  0.59058586  0.10173999  0.27829009    -0.21000
C1380       C  0.59078126  0.07299749  0.27335444    -0.09000
C1381       C  0.60279438  0.05608026  0.29383166     0.29800
C1382       C  0.61606978  0.06754365  0.31614712    -0.21000
C1383       C  0.61695666  0.09594645  0.32018276    -0.09000
C1384       C  0.60348491  0.11312643  0.30140971     0.29800
F1385       F  0.60329481  0.14070528  0.30496718    -0.19600
H1386       H  0.58069820  0.11544159  0.26379913     0.18200
H1387       H  0.62510085  0.05368534  0.33108937     0.18200
F1388       F  0.60095024  0.02836200  0.29389809    -0.19600
C1389       C  0.55567326  0.01178629  0.25133406    -0.21000
C1390       C  0.57797666  0.02921666  0.24579062    -0.09000
C1391       C  0.60302760  0.01563502  0.23986860     0.29800
C1392       C  0.60460751  0.98664844  0.23860123    -0.21000
C1393       C  0.58105666  0.96993280  0.24098626    -0.09000
C1394       C  0.55727241  0.98343117  0.25009969     0.29800
F1395       F  0.53561877  0.96953618  0.26041019    -0.19600
H1396       H  0.53640302  0.01895884  0.25823277     0.18200
H1397       H  0.62425997  0.97726675  0.23481091     0.18200
F1398       F  0.62636405  0.03028924  0.23641582    -0.19600
C1399       C  0.53063789  0.06399027  0.27414721    -0.21000
C1400       C  0.54542090  0.07164185  0.25057163    -0.09000
C1401       C  0.53081473  0.08851791  0.23163981     0.29800
C1402       C  0.50197719  0.08897806  0.23180300    -0.21000
C1403       C  0.48721355  0.07226340  0.25031285    -0.09000
C1404       C  0.50209516  0.06260873  0.27347147     0.29800
F1405       F  0.48968548  0.04852480  0.29396958    -0.19600
H1406       H  0.54109546  0.05434668  0.29126099     0.18200
H1407       H  0.49159416  0.10094411  0.21626124     0.18200
F1408       F  0.54379264  0.10491718  0.21329295    -0.19600
C1409       C  0.60200025  0.89810866  0.21136048    -0.21000
C1410       C  0.59859442  0.92683771  0.21329650    -0.09000
C1411       C  0.60813628  0.94288518  0.19073075     0.29800
C1412       C  0.62168003  0.93062632  0.16863496    -0.21000
C1413       C  0.62519603  0.90213297  0.16739005    -0.09000
C1414       C  0.61537378  0.88601128  0.18925749     0.29800
F1415       F  0.61764923  0.85826172  0.18887337    -0.19600
H1416       H  0.59404433  0.88479300  0.22731202     0.18200
H1417       H  0.62759891  0.94338072  0.15138619     0.18200
F1418       F  0.60175163  0.96975128  0.18769234    -0.19600
C1419       C  0.65421855  0.90488629  0.97234569    -0.21000
C1420       C  0.66259743  0.88090349  0.95905204    -0.09000
C1421       C  0.67680722  0.86079910  0.97430687     0.29800
C1422       C  0.67953359  0.86330971  0.00279148    -0.21000
C1423       C  0.66790259  0.88566534  0.01650513    -0.09000
C1424       C  0.65689880  0.90735684  0.00077536     0.29800
F1425       F  0.64608500  0.92969870  0.01310607    -0.19600
H1426       H  0.64337043  0.92071731  0.96107439     0.18200
H1427       H  0.68794246  0.84623468  0.01434785     0.18200
F1428       F  0.68474585  0.83702261  0.96242774    -0.19600
C1429       C  0.52850712  0.81813896  0.91676686    -0.21000
C1430       C  0.54236750  0.84268562  0.92248961    -0.09000
C1431       C  0.52731790  0.86562223  0.93104693     0.29800
C1432       C  0.49881153  0.86513934  0.92959952    -0.21000
C1433       C  0.48512010  0.84175062  0.91996071    -0.09000
C1434       C  0.50005087  0.81758391  0.91551285     0.29800
F1435       F  0.48751601  0.79428835  0.90694266    -0.19600
H1436       H  0.53966874  0.79999133  0.91076138     0.18200
H1437       H  0.48763383  0.88378347  0.93383758     0.18200
F1438       F  0.54003315  0.88927275  0.93830461    -0.19600
C1439       C  0.42608716  0.92819043  0.16500399    -0.21000
C1440       C  0.42707243  0.89963257  0.16243368    -0.09000
C1441       C  0.43888076  0.88408930  0.18371066     0.29800
C1442       C  0.44992729  0.89692165  0.20661815    -0.21000
C1443       C  0.44880576  0.92566473  0.20998102    -0.09000
C1444       C  0.43711743  0.94124057  0.18806951     0.29800
F1445       F  0.43799632  0.96900281  0.18718379    -0.19600
H1446       H  0.41818490  0.94065520  0.14832542     0.18200
H1447       H  0.45958903  0.88418064  0.22211737     0.18200
F1448       F  0.44054567  0.85634364  0.18213173    -0.19600
C1449       C  0.51116977  0.89736717  0.07194049    -0.21000
C1450       C  0.49741756  0.87373988  0.06310680    -0.09000
C1451       C  0.51254525  0.85161025  0.05278902     0.29800
C1452       C  0.54102935  0.85217746  0.05405271    -0.21000
C1453       C  0.55460989  0.87468904  0.06565366    -0.09000
C1454       C  0.53954421  0.89789809  0.07329023     0.29800
F1455       F  0.55201862  0.92038462  0.08386698    -0.19600
H1456       H  0.49994261  0.91482856  0.07959219     0.18200
H1457       H  0.55231470  0.83422301  0.04772520     0.18200
F1458       F  0.49995226  0.82860801  0.04354845    -0.19600
C1459       C  0.36335307  0.85741797  0.00223124    -0.21000
C1460       C  0.37742628  0.87965747  0.01385190    -0.09000
C1461       C  0.38689249  0.90075574  0.99638056     0.29800
C1462       C  0.38549470  0.89772059  0.96787134    -0.21000
C1463       C  0.37490531  0.87357468  0.95638546    -0.09000
C1464       C  0.36223148  0.85425993  0.97376930     0.29800
F1465       F  0.35096688  0.83105876  0.96340327    -0.19600
H1466       H  0.35561520  0.84099851  0.01511830     0.18200
H1467       H  0.39526480  0.91297767  0.95495803     0.18200
F1468       F  0.39994975  0.92301737  0.00671757    -0.19600
C1469       C  0.32747512  0.57218184  0.89175999    -0.21000
C1470       C  0.33191457  0.59975759  0.89828030    -0.09000
C1471       C  0.31230413  0.61349159  0.91399752     0.29800
C1472       C  0.29011441  0.59932348  0.92491853    -0.21000
C1473       C  0.28701502  0.57077701  0.92141261    -0.09000
C1474       C  0.30503624  0.55785394  0.90264887     0.29800
F1475       F  0.30096085  0.53182662  0.89389971    -0.19600
H1476       H  0.34183239  0.56144696  0.87886678     0.18200
H1477       H  0.27579693  0.61055399  0.93742169     0.18200
F1478       F  0.31491664  0.64063947  0.91950440    -0.19600
C1479       C  0.36597173  0.73101752  0.87841931    -0.21000
C1480       C  0.38334809  0.71540206  0.86188607    -0.09000
C1481       C  0.39932599  0.72869712  0.84199260     0.29800
C1482       C  0.40030050  0.75740463  0.84102880    -0.21000
C1483       C  0.38470823  0.77308786  0.85927106    -0.09000
C1484       C  0.36628314  0.75967016  0.87687408     0.29800
F1485       F  0.35117497  0.77412076  0.89501130    -0.19600
H1486       H  0.35362778  0.72106375  0.89397196     0.18200
H1487       H  0.41472226  0.76736404  0.82740878     0.18200
F1488       F  0.41648045  0.71410738  0.82590033    -0.19600
C1489       C  0.65643136  0.73856402  0.08757072    -0.21000
C1490       C  0.63783329  0.72598523  0.10562242    -0.09000
C1491       C  0.62254905  0.74237432  0.12343783     0.29800
C1492       C  0.62479943  0.77091024  0.12210627    -0.21000
C1493       C  0.64271595  0.78354128  0.10349461    -0.09000
C1494       C  0.65920217  0.76718668  0.08676436     0.29800
F1495       F  0.67625267  0.77888043  0.06816452    -0.19600
H1496       H  0.66814059  0.72624000  0.07347021     0.18200
H1497       H  0.61172652  0.78326493  0.13493763     0.18200
F1498       F  0.60369132  0.73098513  0.14040189    -0.19600
C1499       C  0.31495186  0.61824464  0.08094251    -0.21000
C1500       C  0.33561426  0.60436333  0.09539577    -0.09000
C1501       C  0.33280842  0.57596041  0.09959345     0.29800
C1502       C  0.31033793  0.56171989  0.08867446    -0.21000
C1503       C  0.29047567  0.57513356  0.07218248    -0.09000
C1504       C  0.29270308  0.60407600  0.06972343     0.29800
F1505       F  0.27395528  0.61867949  0.05520876    -0.19600
H1506       H  0.31649833  0.64015511  0.07740155     0.18200
H1507       H  0.30898022  0.54005772  0.09318283     0.18200
F1508       F  0.35250922  0.56159831  0.11303706    -0.19600
C1509       C  0.44442527  0.65019576  0.98001299    -0.21000
C1510       C  0.43197763  0.62832274  0.96621498    -0.09000
C1511       C  0.42160882  0.60598074  0.98134403     0.29800
C1512       C  0.42161411  0.60679094  0.00987051    -0.21000
C1513       C  0.43186288  0.62981742  0.02361271    -0.09000
C1514       C  0.44447838  0.65097902  0.00852948     0.29800
F1515       F  0.45537137  0.67320281  0.02117349    -0.19600
H1516       H  0.45273458  0.66747951  0.96870140     0.18200
H1517       H  0.41193259  0.59019987  0.02110597     0.18200
F1518       F  0.40915946  0.58457713  0.96872224    -0.19600
C1519       C  0.50073514  0.60085718  0.13300596    -0.21000
C1520       C  0.48500623  0.62351341  0.14111207    -0.09000
C1521       C  0.49864627  0.64701765  0.15076384     0.29800
C1522       C  0.52715452  0.64890099  0.14914879    -0.21000
C1523       C  0.54267877  0.62739056  0.13820810    -0.09000
C1524       C  0.52934993  0.60262782  0.13174738     0.29800
F1525       F  0.54349478  0.58134746  0.12103200    -0.19600
H1526       H  0.49076088  0.58259006  0.12532439     0.18200
H1527       H  0.53688682  0.66819378  0.15425001     0.18200
F1528       F  0.48440009  0.66960895  0.15825899    -0.19600
C1529       C  0.43421259  0.76675365  0.10591906    -0.21000
C1530       C  0.40990965  0.78195108  0.10661098    -0.09000
C1531       C  0.38533699  0.76850328  0.11352043     0.29800
C1532       C  0.38502973  0.73987930  0.11743856    -0.21000
C1533       C  0.40918913  0.72467059  0.11451745    -0.09000
C1534       C  0.43391050  0.73850657  0.10981594     0.29800
F1535       F  0.45778012  0.72448234  0.10792694    -0.19600
H1536       H  0.45355697  0.77663365  0.10145176     0.18200
H1537       H  0.36578060  0.72947933  0.12101751     0.18200
F1538       F  0.36154093  0.78265657  0.11495886    -0.19600
C1539       C  0.57855079  0.61068110  0.97991774    -0.21000
C1540       C  0.57594227  0.63490476  0.96446436    -0.09000
C1541       C  0.57047148  0.65971465  0.97784486     0.29800
C1542       C  0.57149492  0.66081824  0.00631805    -0.21000
C1543       C  0.57795514  0.63726548  0.02165040    -0.09000
C1544       C  0.57974286  0.61178931  0.00840725     0.29800
F1545       F  0.58591335  0.58851556  0.02255083    -0.19600
H1546       H  0.58261086  0.59131098  0.96999440     0.18200
H1547       H  0.56955564  0.68055247  0.01618830     0.18200
F1548       F  0.56684048  0.68337040  0.96345912    -0.19600
C1549       C  0.52420215  0.59932315  0.85532496    -0.21000
C1550       C  0.53865937  0.62319533  0.84786423    -0.09000
C1551       C  0.52385426  0.64588035  0.83781082     0.29800
C1552       C  0.49532925  0.64603735  0.83903250    -0.21000
C1553       C  0.48097419  0.62357714  0.85003653    -0.09000
C1554       C  0.49549599  0.59945824  0.85645300     0.29800
F1555       F  0.48235972  0.57728588  0.86706182    -0.19600
H1556       H  0.53508066  0.58160185  0.86320602     0.18200
H1557       H  0.48458296  0.66470207  0.83352236     0.18200
F1558       F  0.53697507  0.66900693  0.82941406    -0.19600
C1559       C  0.63758025  0.72904313  0.85644398    -0.21000
C1560       C  0.64272140  0.71386973  0.88048706    -0.09000
C1561       C  0.65187874  0.72774647  0.90398667     0.29800
C1562       C  0.65265432  0.75634022  0.90431736    -0.21000
C1563       C  0.64464410  0.77165194  0.88122805    -0.09000
C1564       C  0.63855036  0.75781127  0.85674309     0.29800
F1565       F  0.63087145  0.77195133  0.83395571    -0.19600
H1566       H  0.63061797  0.71880648  0.83807266     0.18200
H1567       H  0.65791731  0.76655406  0.92326165     0.18200
F1568       F  0.65826056  0.71379459  0.92730870    -0.19600
C1569       C  0.32234803  0.38097470  0.91632520    -0.21000
C1570       C  0.34068228  0.39666149  0.90054088    -0.09000
C1571       C  0.33387202  0.42409942  0.89480176     0.29800
C1572       C  0.31009517  0.43582491  0.90587425    -0.21000
C1573       C  0.29263577  0.42076268  0.92364547    -0.09000
C1574       C  0.29860234  0.39253632  0.92727444     0.29800
F1575       F  0.28217425  0.37631031  0.94282307    -0.19600
H1576       H  0.32674276  0.35966007  0.92086252     0.18200
H1577       H  0.30564704  0.45682011  0.90030600     0.18200
F1578       F  0.35067737  0.43998981  0.87933683    -0.19600
C1579       C  0.38717138  0.26788034  0.87342583    -0.21000
C1580       C  0.41222026  0.28171181  0.87054831    -0.09000
C1581       C  0.43639221  0.26648627  0.86840558     0.29800
C1582       C  0.43570960  0.23800017  0.87042015    -0.21000
C1583       C  0.41099768  0.22405143  0.87506409    -0.09000
C1584       C  0.38651530  0.23913950  0.87587175     0.29800
F1585       F  0.36238025  0.22643225  0.88112046    -0.19600
H1586       H  0.36842260  0.27939915  0.87571671     0.18200
H1587       H  0.45483621  0.22688958  0.86953050     0.18200
F1588       F  0.46090553  0.27929866  0.86558681    -0.19600
C1589       C  0.50899935  0.40377651  0.86345344    -0.21000
C1590       C  0.49295705  0.38243745  0.85256733    -0.09000
C1591       C  0.50650847  0.36006830  0.84050952     0.29800
C1592       C  0.53507323  0.35769073  0.84238091    -0.21000
C1593       C  0.55086805  0.37775830  0.85571345    -0.09000
C1594       C  0.53761814  0.40164201  0.86483610     0.29800
F1595       F  0.55191688  0.42169161  0.87769825    -0.19600
H1596       H  0.49925454  0.42123501  0.87290153     0.18200
H1597       H  0.54465694  0.33915786  0.83500690     0.18200
F1598       F  0.49208872  0.33901419  0.82949235    -0.19600
C1599       C  0.66547322  0.23461368  0.89830985    -0.21000
C1600       C  0.65127245  0.22030166  0.87793541    -0.09000
C1601       C  0.63908373  0.23494283  0.85626385     0.29800
C1602       C  0.63947760  0.26366786  0.85600262    -0.21000
C1603       C  0.65122454  0.27806578  0.87786897    -0.09000
C1604       C  0.66534336  0.26333603  0.89843836     0.29800
F1605       F  0.67738109  0.27665420  0.91965353    -0.19600
H1606       H  0.67471812  0.22359571  0.91530960     0.18200
H1607       H  0.62834615  0.27455286  0.84009715     0.18200
F1608       F  0.62506664  0.22144776  0.83645480    -0.19600
C1609       C  0.53749600  0.15651522  0.93321186    -0.21000
C1610       C  0.55119055  0.13321873  0.92368452    -0.09000
C1611       C  0.53645498  0.10873085  0.91976814     0.29800
C1612       C  0.50811333  0.10861071  0.92223759    -0.21000
C1613       C  0.49411203  0.13285581  0.92838159    -0.09000
C1614       C  0.50910493  0.15639745  0.93564552     0.29800
F1615       F  0.49631417  0.18005803  0.94249294    -0.19600
H1616       H  0.54851516  0.17543847  0.93689003     0.18200
H1617       H  0.49701444  0.09014705  0.91688017     0.18200
F1618       F  0.54900515  0.08553817  0.91117343    -0.19600
C1619       C  0.31255964  0.43729081  0.08964953    -0.21000
C1620       C  0.29301904  0.42293755  0.07358372    -0.09000
C1621       C  0.29712148  0.39438051  0.07043216     0.29800
C1622       C  0.32072300  0.38161027  0.08029829    -0.21000
C1623       C  0.34092362  0.39638365  0.09437777    -0.09000
C1624       C  0.33629789  0.42426308  0.09968762     0.29800
F1625       F  0.35523278  0.43924175  0.11343316    -0.19600
H1626       H  0.30979234  0.45864462  0.09463528     0.18200
H1627       H  0.32352857  0.35997726  0.07621832     0.18200
F1628       F  0.27876618  0.37884842  0.05650858    -0.19600
C1629       C  0.43859909  0.39118382  0.98264543    -0.21000
C1630       C  0.44182601  0.36687078  0.96782937    -0.09000
C1631       C  0.44773238  0.34229351  0.98187307     0.29800
C1632       C  0.44764280  0.34164957  0.01034491    -0.21000
C1633       C  0.44163010  0.36538102  0.02518851    -0.09000
C1634       C  0.43845898  0.39052145  0.01120336     0.29800
F1635       F  0.43304230  0.41401806  0.02489807    -0.19600
H1636       H  0.43430103  0.41037652  0.97218820     0.18200
H1637       H  0.45055588  0.32214517  0.02071383     0.18200
F1638       F  0.45171576  0.31846844  0.96821838    -0.19600
C1639       C  0.44457933  0.08028993  0.16829414    -0.21000
C1640       C  0.41986528  0.09470435  0.16883065    -0.09000
C1641       C  0.40582828  0.09628490  0.19376748     0.29800
C1642       C  0.41735054  0.08519163  0.21786339    -0.21000
C1643       C  0.44369346  0.07293785  0.21807843    -0.09000
C1644       C  0.45611906  0.06933055  0.19210764     0.29800
F1645       F  0.48019187  0.05614035  0.18927624    -0.19600
H1646       H  0.45572119  0.07814139  0.14929897     0.18200
H1647       H  0.40529894  0.08647079  0.23628504     0.18200
F1648       F  0.38128110  0.10908212  0.19507785    -0.19600
C1649       C  0.37657556  0.10670559  0.01297480    -0.21000
C1650       C  0.36945019  0.13138033  0.02581399    -0.09000
C1651       C  0.36144367  0.15380281  0.00938416     0.29800
C1652       C  0.36358209  0.15253970  0.98087322    -0.21000
C1653       C  0.37417092  0.12909962  0.96811923    -0.09000
C1654       C  0.37913566  0.10555553  0.98433910     0.29800
F1655       F  0.38909073  0.08233656  0.97293511    -0.19600
H1656       H  0.38301097  0.08921058  0.02516753     0.18200
H1657       H  0.35933110  0.17091300  0.96901007     0.18200
F1658       F  0.35409978  0.17790940  0.02099897    -0.19600
C1659       C  0.40686252  0.26501647  0.14665104    -0.21000
C1660       C  0.39033710  0.27996739  0.12844551    -0.09000
C1661       C  0.37051316  0.26608972  0.11287818     0.29800
C1662       C  0.36888519  0.23744866  0.11378970    -0.21000
C1663       C  0.38760171  0.22224835  0.12954311    -0.09000
C1664       C  0.40579199  0.23628984  0.14699575     0.29800
F1665       F  0.42402275  0.22225158  0.16270956    -0.19600
H1666       H  0.42243910  0.27537387  0.15856871     0.18200
H1667       H  0.35482561  0.22714570  0.10008068     0.18200
F1668       F  0.35418929  0.28013211  0.09516539    -0.19600
C1669       C  0.59014607  0.33354278  0.98426499    -0.21000
C1670       C  0.59182365  0.35836501  0.96962359    -0.09000
C1671       C  0.59091982  0.38325947  0.98398507     0.29800
C1672       C  0.59215689  0.38313991  0.01252543    -0.21000
C1673       C  0.59410150  0.35827627  0.02703946    -0.09000
C1674       C  0.59125147  0.33341666  0.01281706     0.29800
F1675       F  0.59219855  0.30891938  0.02619098    -0.19600
H1676       H  0.59040429  0.31410843  0.97364597     0.18200
H1677       H  0.59371983  0.40254457  0.02310207     0.18200
F1678       F  0.59141956  0.40771582  0.97052470    -0.19600
C1679       C  0.53728126  0.34912349  0.14752240    -0.21000
C1680       C  0.55135306  0.37219532  0.13731309    -0.09000
C1681       C  0.53595825  0.39528541  0.12911616     0.29800
C1682       C  0.50722089  0.39420275  0.12888219    -0.21000
C1683       C  0.49331742  0.37005661  0.13650878    -0.09000
C1684       C  0.50868994  0.34791299  0.14695877     0.29800
F1685       F  0.49621041  0.32428285  0.15492426    -0.19600
H1686       H  0.54843283  0.33103795  0.15405381     0.18200
H1687       H  0.49595446  0.41151823  0.12065704     0.18200
F1688       F  0.54855697  0.41809611  0.11923172    -0.19600
C1689       C  0.62223723  0.09888611  0.19326921    -0.21000
C1690       C  0.60764457  0.09378444  0.16913617    -0.09000
C1691       C  0.58531039  0.07560396  0.17020867     0.29800
C1692       C  0.57661542  0.06458457  0.19524432    -0.21000
C1693       C  0.58893703  0.07232575  0.22026492    -0.09000
C1694       C  0.61344616  0.08809263  0.21845457     0.29800
F1695       F  0.62985068  0.09254908  0.24039331    -0.19600
H1696       H  0.64011573  0.11202149  0.19282124     0.18200
H1697       H  0.55897524  0.05111246  0.19531940     0.18200
F1698       F  0.57129261  0.06902545  0.14711736    -0.19600
C1699       C  0.64670101  0.10008540  0.01293856    -0.21000
C1700       C  0.65645784  0.12327715  0.02680468    -0.09000
C1701       C  0.67144608  0.14308257  0.01212464     0.29800
C1702       C  0.67395034  0.14124642  0.98366913    -0.21000
C1703       C  0.66101816  0.11998005  0.96923465    -0.09000
C1704       C  0.64878313  0.09844392  0.98431476     0.29800
F1705       F  0.63628538  0.07730044  0.97132199    -0.19600
H1706       H  0.63502230  0.08462082  0.02384877     0.18200
H1707       H  0.68371020  0.15798919  0.97273491     0.18200
F1708       F  0.68174054  0.16543496  0.02502891    -0.19600
C1709       C  0.66201277  0.23372712  0.10432339    -0.21000
C1710       C  0.64548898  0.22010757  0.12352926    -0.09000
C1711       C  0.63271796  0.23551248  0.14412931     0.29800
C1712       C  0.63460792  0.26423684  0.14396177    -0.21000
C1713       C  0.64864425  0.27789509  0.12287119    -0.09000
C1714       C  0.66330499  0.26237289  0.10371693     0.29800
F1715       F  0.67729975  0.27496198  0.08319772    -0.19600
H1716       H  0.67198093  0.22234862  0.08822246     0.18200
H1717       H  0.62307003  0.27580898  0.15881985     0.18200
F1718       F  0.61704858  0.22293339  0.16336525    -0.19600
C1719       C  0.49727220  0.17579020  0.07697739    -0.21000
C1720       C  0.48292697  0.15124552  0.07264186    -0.09000
C1721       C  0.49740245  0.12746774  0.06550487     0.29800
C1722       C  0.52590231  0.12772826  0.06565648    -0.21000
C1723       C  0.54025022  0.15156580  0.07300638    -0.09000
C1724       C  0.52573415  0.17600507  0.07730424     0.29800
F1725       F  0.53885746  0.19961635  0.08391491    -0.19600
H1726       H  0.48651016  0.19443551  0.08216782     0.18200
H1727       H  0.53666599  0.10871219  0.06200722     0.18200
F1728       F  0.48423027  0.10340351  0.06078211    -0.19600
C1729       C  0.94319790  0.79502167  0.40353149    -0.21000
C1730       C  0.93295330  0.77811320  0.42493763    -0.09000
C1731       C  0.90699781  0.78504799  0.43568572     0.29800
C1732       C  0.89341878  0.80882496  0.42718230    -0.21000
C1733       C  0.90457832  0.82638880  0.40723550    -0.09000
C1734       C  0.92937669  0.81890452  0.39497481     0.29800
F1735       F  0.94063767  0.83493609  0.37516724    -0.19600
H1736       H  0.96200627  0.78992425  0.39321592     0.18200
H1737       H  0.87403901  0.81365073  0.43663428     0.18200
F1738       F  0.89431484  0.76865134  0.45428170    -0.19600
C1739       C  0.94673014  0.69960217  0.43090676    -0.21000
C1740       C  0.93582683  0.72537879  0.42283747    -0.09000
C1741       C  0.91429599  0.72479240  0.40298885     0.29800
C1742       C  0.90468960  0.69985389  0.39229253    -0.21000
C1743       C  0.91629841  0.67475549  0.40014560    -0.09000
C1744       C  0.93719727  0.67490599  0.41995697     0.29800
F1745       F  0.94890004  0.65111674  0.42853136    -0.19600
H1746       H  0.96315624  0.69871712  0.44582761     0.18200
H1747       H  0.88896866  0.70034654  0.37661879     0.18200
F1748       F  0.90287698  0.74788453  0.39247611    -0.19600
C1749       C  0.94043800  0.78353527  0.59997479    -0.21000
C1750       C  0.93433588  0.77597039  0.57263205    -0.09000
C1751       C  0.91279131  0.79039893  0.55940966     0.29800
C1752       C  0.90086589  0.81313971  0.57158753    -0.21000
C1753       C  0.90913683  0.82229138  0.59751625    -0.09000
C1754       C  0.92871502  0.80688839  0.61197239     0.29800
F1755       F  0.93677042  0.81448091  0.63743172    -0.19600
H1756       H  0.95523025  0.77186670  0.61175221     0.18200
H1757       H  0.88506417  0.82388072  0.56023474     0.18200
F1758       F  0.90217440  0.78244615  0.53500960    -0.19600
C1759       C  0.95263862  0.71150852  0.59490860    -0.21000
C1760       C  0.93693318  0.72523912  0.57468609    -0.09000
C1761       C  0.90952598  0.71608319  0.57141521     0.29800
C1762       C  0.90046749  0.69144872  0.58385051    -0.21000
C1763       C  0.91781850  0.67635574  0.60130971    -0.09000
C1764       C  0.94362321  0.68749629  0.60752635     0.29800
F1765       F  0.96076628  0.67498651  0.62560824    -0.19600
H1766       H  0.97241791  0.71907782  0.60128359     0.18200
H1767       H  0.88003440  0.68404228  0.57954536     0.18200
F1768       F  0.89166447  0.73037944  0.55555132    -0.19600
C1769       C  0.93392597  0.72950843  0.51233971    -0.21000
C1770       C  0.94525342  0.75124355  0.52746573    -0.09000
C1771       C  0.95493960  0.77402541  0.51220130     0.29800
C1772       C  0.95458737  0.77421519  0.48357789    -0.21000
C1773       C  0.94563992  0.75152439  0.46805099    -0.09000
C1774       C  0.93242945  0.73037631  0.48359887     0.29800
F1775       F  0.91555501  0.71167310  0.47200766    -0.19600
H1776       H  0.92587344  0.71148163  0.52234644     0.18200
H1777       H  0.96018543  0.79319501  0.47389623     0.18200
F1778       F  0.96462238  0.79667167  0.52507020    -0.19600
C1779       C  0.09950665  0.80931133  0.39346642    -0.21000
C1780       C  0.12242689  0.81709112  0.40901292    -0.09000
C1781       C  0.12932725  0.80094779  0.43206033     0.29800
C1782       C  0.11273465  0.77908184  0.44038130    -0.21000
C1783       C  0.08834169  0.77234713  0.42634209    -0.09000
C1784       C  0.08302507  0.78691059  0.40155626     0.29800
F1785       F  0.06205513  0.77953380  0.38490806    -0.19600
H1786       H  0.09414328  0.82074839  0.37513600     0.18200
H1787       H  0.11931467  0.76724456  0.45802379     0.18200
F1788       F  0.15234564  0.80614016  0.44676526    -0.19600
C1789       C  0.10478957  0.72005981  0.40560233    -0.21000
C1790       C  0.08165899  0.72037256  0.42317010    -0.09000
C1791       C  0.06920729  0.69454501  0.42870004     0.29800
C1792       C  0.07879606  0.67038587  0.41668040    -0.21000
C1793       C  0.10135704  0.67060479  0.39896796    -0.09000
C1794       C  0.11452691  0.69572078  0.39392400     0.29800
F1795       F  0.13642653  0.69703532  0.37699064    -0.19600
H1796       H  0.11579253  0.73857256  0.40040392     0.18200
H1797       H  0.06821588  0.65133933  0.42112608     0.18200
F1798       F  0.04782419  0.69255235  0.44627472    -0.19600
C1799       C  0.99616925  0.77686291  0.43635704    -0.21000
C1800       C  0.98018383  0.75407389  0.42830399    -0.09000
C1801       C  0.99480428  0.73468417  0.41235191     0.29800
C1802       C  0.02356459  0.73357990  0.41312355    -0.21000
C1803       C  0.03928790  0.75234611  0.42865310    -0.09000
C1804       C  0.02485085  0.77649151  0.43568194     0.29800
F1805       F  0.03785178  0.80089666  0.43850173    -0.19600
H1806       H  0.98672469  0.79608259  0.44130758     0.18200
H1807       H  0.03315383  0.71813682  0.40074166     0.18200
F1808       F  0.98207768  0.71804962  0.39417122    -0.19600
C1809       C  0.10268812  0.80230222  0.60939503    -0.21000
C1810       C  0.12051125  0.81653656  0.59171472    -0.09000
C1811       C  0.12354320  0.80663404  0.56488993     0.29800
C1812       C  0.10840727  0.78439950  0.55564536    -0.21000
C1813       C  0.08857676  0.77125677  0.57211107    -0.09000
C1814       C  0.08733780  0.77956357  0.59993797     0.29800
F1815       F  0.07060398  0.76630993  0.61777524    -0.19600
H1816       H  0.10042744  0.80888970  0.63039113     0.18200
H1817       H  0.11287701  0.77756640  0.53515957     0.18200
F1818       F  0.14136657  0.81837990  0.54704936    -0.19600
C1819       C  0.06621141  0.70671369  0.59534911    -0.21000
C1820       C  0.08217472  0.72058017  0.57550071    -0.09000
C1821       C  0.10911862  0.71060707  0.57153870     0.29800
C1822       C  0.11781074  0.68574872  0.58367860    -0.21000
C1823       C  0.10060952  0.67105038  0.60148760    -0.09000
C1824       C  0.07499527  0.68245284  0.60781685     0.29800
F1825       F  0.05784040  0.66994374  0.62582124    -0.19600
H1826       H  0.04657204  0.71447080  0.60167948     0.18200
H1827       H  0.13796815  0.67796504  0.57904378     0.18200
F1828       F  0.12681930  0.72436110  0.55509321    -0.19600
C1829       C  0.02374867  0.72734327  0.55398739    -0.21000
C1830       C  0.03954434  0.74936179  0.56410054    -0.09000
C1831       C  0.02506883  0.77292250  0.57286111     0.29800
C1832       C  0.99629688  0.77369352  0.57186875    -0.21000
C1833       C  0.98074649  0.75122273  0.56222080    -0.09000
C1834       C  0.99543181  0.72828106  0.55264717     0.29800
F1835       F  0.98223423  0.70638246  0.54170591    -0.19600
H1836       H  0.03372622  0.70921294  0.54614379     0.18200
H1837       H  0.98658676  0.79272988  0.57733602     0.18200
F1838       F  0.03812285  0.79624751  0.58026664    -0.19600
C1839       C  0.08276517  0.72319869  0.51341504    -0.21000
C1840       C  0.07354605  0.74596088  0.52841930    -0.09000
C1841       C  0.06463602  0.76888406  0.51297081     0.29800
C1842       C  0.06492472  0.76889989  0.48448721    -0.21000
C1843       C  0.07269411  0.74592879  0.46894830    -0.09000
C1844       C  0.08389742  0.72367697  0.48458335     0.29800
F1845       F  0.09815832  0.70305548  0.47300065    -0.19600
H1846       H  0.08951115  0.70471424  0.52359724     0.18200
H1847       H  0.06043597  0.78815462  0.47499549     0.18200
F1848       F  0.05613200  0.79208895  0.52554162    -0.19600
C1849       C  0.80943025  0.44442245  0.90042305    -0.21000
C1850       C  0.79707696  0.42989351  0.92223683    -0.09000
C1851       C  0.80662331  0.40282578  0.92735687     0.29800
C1852       C  0.82967485  0.39249040  0.91363246    -0.21000
C1853       C  0.84277845  0.40811829  0.89327882    -0.09000
C1854       C  0.83159488  0.43381883  0.88618423     0.29800
F1855       F  0.84220472  0.44919541  0.86548296    -0.19600
H1856       H  0.80180621  0.46414977  0.89368619     0.18200
H1857       H  0.83739737  0.37238102  0.91911930     0.18200
F1858       F  0.79411324  0.38652619  0.94615368    -0.19600
C1859       C  0.73331904  0.40590304  0.94307692    -0.21000
C1860       C  0.74676850  0.42535864  0.92629921    -0.09000
C1861       C  0.73771293  0.42719054  0.89862714     0.29800
C1862       C  0.71368079  0.41366155  0.88991154    -0.21000
C1863       C  0.69889424  0.39686870  0.90809028    -0.09000
C1864       C  0.70978381  0.39238993  0.93447452     0.29800
F1865       F  0.69776221  0.37471083  0.95238079    -0.19600
H1866       H  0.74077967  0.40075316  0.96331502     0.18200
H1867       H  0.70647959  0.41662776  0.86910886     0.18200
F1868       F  0.75149512  0.44283433  0.88017655    -0.19600
C1869       C  0.80464089  0.60531693  0.06290034    -0.21000
C1870       C  0.79022138  0.58189763  0.07255614    -0.09000
C1871       C  0.79814660  0.57111352  0.09837560     0.29800
C1872       C  0.82144347  0.58086821  0.11176128    -0.21000
C1873       C  0.83722661  0.60226944  0.10060466    -0.09000
C1874       C  0.82812430  0.61504034  0.07641627     0.29800
F1875       F  0.84254323  0.63603447  0.06512749    -0.19600
H1876       H  0.79832006  0.61576434  0.04432334     0.18200
H1877       H  0.82741160  0.57121370  0.13091450     0.18200
F1878       F  0.78350718  0.55094971  0.11084146    -0.19600
C1879       C  0.73671881  0.59947395  0.08958527    -0.21000
C1880       C  0.73814345  0.58090035  0.06729108    -0.09000
C1881       C  0.71290078  0.57344606  0.05486971     0.29800
C1882       C  0.68820714  0.58474370  0.06348689    -0.21000
C1883       C  0.68724248  0.60334554  0.08522063    -0.09000
C1884       C  0.71169601  0.61025539  0.09856712     0.29800
F1885       F  0.71165551  0.62853265  0.11940914    -0.19600
H1886       H  0.75484191  0.60629192  0.10023037     0.18200
H1887       H  0.66961561  0.57898439  0.05284614     0.18200
F1888       F  0.71210660  0.55503725  0.03411150    -0.19600
C1889       C  0.80784353  0.40689153  0.07250175    -0.21000
C1890       C  0.79846349  0.43406929  0.07662421    -0.09000
C1891       C  0.81107575  0.44892685  0.09816675     0.29800
C1892       C  0.83390637  0.43851077  0.11191112    -0.21000
C1893       C  0.84497916  0.41281245  0.10550149    -0.09000
C1894       C  0.83131529  0.39672017  0.08597082     0.29800
F1895       F  0.84061275  0.37132081  0.07976137    -0.19600
H1896       H  0.79767346  0.39390970  0.05771513     0.18200
H1897       H  0.84327801  0.45110739  0.12755583     0.18200
F1898       F  0.80120735  0.47326835  0.10703355    -0.19600
C1899       C  0.71378589  0.41867803  0.10718527    -0.21000
C1900       C  0.70205068  0.39805799  0.09092342    -0.09000
C1901       C  0.71537932  0.39114842  0.06639778     0.29800
C1902       C  0.73789288  0.40605052  0.05719471    -0.21000
C1903       C  0.74837667  0.42870376  0.07178295    -0.09000
C1904       C  0.73728723  0.43307094  0.09828124     0.29800
F1905       F  0.74862792  0.45177273  0.11536092    -0.19600
H1906       H  0.70477734  0.42371394  0.12672966     0.18200
H1907       H  0.74719694  0.39929887  0.03836485     0.18200
F1908       F  0.70668352  0.36983025  0.05084868    -0.19600
C1909       C  0.74705940  0.49108807  0.07051963    -0.21000
C1910       C  0.77089241  0.47725156  0.06232891    -0.09000
C1911       C  0.79292882  0.49387338  0.05362895     0.29800
C1912       C  0.79105606  0.52244374  0.05315006    -0.21000
C1913       C  0.76687581  0.53667729  0.05975005    -0.09000
C1914       C  0.74561948  0.51990317  0.07097605     0.29800
F1915       F  0.72406060  0.53041593  0.08460428    -0.19600
H1916       H  0.72904724  0.47996926  0.07674859     0.18200
H1917       H  0.80965007  0.53315085  0.04910204     0.18200
F1918       F  0.81691914  0.48245649  0.04584255    -0.19600
C1919       C  0.75150497  0.44940010  0.01322763    -0.21000
C1920       C  0.77490787  0.44162404  0.02834646    -0.09000
C1921       C  0.79830306  0.43401306  0.01301754     0.29800
C1922       C  0.79731381  0.43287738  0.98420117    -0.21000
C1923       C  0.77346473  0.44001701  0.96937683    -0.09000
C1924       C  0.75084100  0.44912013  0.98478309     0.29800
F1925       F  0.72774975  0.45817614  0.97216541    -0.19600
H1926       H  0.73340994  0.45643027  0.02376852     0.18200
H1927       H  0.81603208  0.42803380  0.97365857     0.18200
F1928       F  0.82294781  0.42988544  0.02503888    -0.19600
C1929       C  0.79774573  0.56374965  0.89422577    -0.21000
C1930       C  0.78883644  0.57758783  0.91786961    -0.09000
C1931       C  0.80292196  0.60214943  0.92484442     0.29800
C1932       C  0.82682151  0.61005360  0.91088018    -0.21000
C1933       C  0.83684031  0.59438198  0.88913131    -0.09000
C1934       C  0.82141187  0.57160667  0.88042400     0.29800
F1935       F  0.82947300  0.55622418  0.85884507    -0.19600
H1936       H  0.78670366  0.54611905  0.88658510     0.18200
H1937       H  0.83783079  0.62813198  0.91752086     0.18200
F1938       F  0.79382614  0.61869255  0.94507278    -0.19600
C1939       C  0.71190713  0.56729428  0.93615551    -0.21000
C1940       C  0.73628337  0.57599383  0.92297992    -0.09000
C1941       C  0.73313042  0.59328682  0.89953189     0.29800
C1942       C  0.70711574  0.60125657  0.89030307    -0.21000
C1943       C  0.68341569  0.59315081  0.90417262    -0.09000
C1944       C  0.68608818  0.57595667  0.92726368     0.29800
F1945       F  0.66376909  0.56771867  0.94160419    -0.19600
H1946       H  0.71304605  0.55381560  0.95386176     0.18200
H1947       H  0.70561637  0.61493978  0.87278284     0.18200
F1948       F  0.75470538  0.60325793  0.88529134    -0.19600
C1949       C  0.79154792  0.56809828  0.98066283    -0.21000
C1950       C  0.76751369  0.57424109  0.96579931    -0.09000
C1951       C  0.74847097  0.59036073  0.98061862     0.29800
C1952       C  0.74926163  0.59109881  0.00936641    -0.21000
C1953       C  0.76902010  0.57617989  0.02459780    -0.09000
C1954       C  0.79255684  0.56927865  0.00927082     0.29800
F1955       F  0.81756673  0.56728809  0.02106333    -0.19600
H1956       H  0.81052336  0.56429251  0.97026742     0.18200
H1957       H  0.73426228  0.60376398  0.01931177     0.18200
F1958       F  0.73044426  0.60732675  0.96790199    -0.19600
C1959       C  0.78964392  0.51919110  0.94143911    -0.21000
C1960       C  0.76576075  0.53312968  0.93284664    -0.09000
C1961       C  0.74554843  0.51607946  0.92026199     0.29800
C1962       C  0.74697292  0.48731819  0.92181587    -0.21000
C1963       C  0.76994944  0.47378737  0.93285273    -0.09000
C1964       C  0.79166770  0.49065521  0.94188277     0.29800
F1965       F  0.81530812  0.47949170  0.95135199    -0.19600
H1966       H  0.80805305  0.53007754  0.94642086     0.18200
H1967       H  0.72960652  0.47603298  0.91422051     0.18200
F1968       F  0.72535265  0.52631602  0.90416237    -0.19600
C1969       C  0.41958273  0.92176413  0.77154494    -0.21000
C1970       C  0.44795581  0.92588362  0.76707206    -0.09000
C1971       C  0.46574490  0.91805986  0.78880375     0.29800
C1972       C  0.45598460  0.90373594  0.81155679    -0.21000
C1973       C  0.42818435  0.89742912  0.81455134    -0.09000
C1974       C  0.40983126  0.90708698  0.79451714     0.29800
F1975       F  0.38266898  0.90192271  0.79675701    -0.19600
H1976       H  0.40494508  0.92913045  0.75653319     0.18200
H1977       H  0.47054382  0.89786250  0.82729998     0.18200
F1978       F  0.49237491  0.92571079  0.78962412    -0.19600
C1979       C  0.43277014  0.90256433  0.71321600    -0.21000
C1980       C  0.44619020  0.92844984  0.71372994    -0.09000
C1981       C  0.45173604  0.94074234  0.68793145     0.29800
C1982       C  0.44109880  0.92980831  0.66372257    -0.21000
C1983       C  0.42563757  0.90552434  0.66383810    -0.09000
C1984       C  0.42239751  0.89144337  0.68878763     0.29800
F1985       F  0.40857094  0.86729817  0.68981072    -0.19600
H1986       H  0.43044233  0.89028913  0.73153144     0.18200
H1987       H  0.44457360  0.94085593  0.64471997     0.18200
F1988       F  0.46679232  0.96405939  0.68596927    -0.19600
C1989       C  0.44953137  0.11730474  0.80401239    -0.21000
C1990       C  0.42971728  0.10517148  0.82102050    -0.09000
C1991       C  0.41860052  0.07979033  0.81331203     0.29800
C1992       C  0.42792410  0.06650047  0.78965460    -0.21000
C1993       C  0.44909481  0.07782395  0.77326786    -0.09000
C1994       C  0.45888905  0.10418218  0.78049098     0.29800
F1995       F  0.47748501  0.11748752  0.76464496    -0.19600
H1996       H  0.45816499  0.13711724  0.80908329     0.18200
H1997       H  0.41844131  0.04717845  0.78443168     0.18200
F1998       F  0.39936997  0.06733319  0.82904214    -0.19600
C1999       C  0.45527900  0.06528962  0.69478102    -0.21000
C2000       C  0.44800134  0.07616515  0.72063260    -0.09000
C2001       C  0.42809353  0.09771579  0.71998242     0.29800
C2002       C  0.41666318  0.10714927  0.69516582    -0.21000
C2003       C  0.42363299  0.09536580  0.67011289    -0.09000
C2004       C  0.44351371  0.07459428  0.67018913     0.29800
F2005       F  0.45118012  0.06259971  0.64642861    -0.19600
H2006       H  0.46983059  0.04860994  0.69373114     0.18200
H2007       H  0.40099244  0.12279906  0.69579071     0.18200
F2008       F  0.41790759  0.10924188  0.74291701    -0.19600
C2009       C  0.43601861  0.01781374  0.72944169    -0.21000
C2010       C  0.45317193  0.03110639  0.74894178    -0.09000
C2011       C  0.46242100  0.01380263  0.77049970     0.29800
C2012       C  0.46142563  0.98529685  0.76841971    -0.21000
C2013       C  0.44994534  0.97210293  0.74549951    -0.09000
C2014       C  0.43407401  0.98892258  0.72790984     0.29800
F2015       F  0.41653219  0.97799613  0.70939501    -0.19600
H2016       H  0.42363608  0.02944286  0.71521174     0.18200
H2017       H  0.47139679  0.97351011  0.78436871     0.18200
F2018       F  0.47106862  0.02374165  0.79467855    -0.19600
C2019       C  0.56825510  0.91025899  0.78769297    -0.21000
C2020       C  0.58783048  0.92044816  0.76895565    -0.09000
C2021       C  0.61574465  0.91770873  0.77668207     0.29800
C2022       C  0.62337984  0.90428625  0.80117529    -0.21000
C2023       C  0.60353135  0.89335793  0.81884232    -0.09000
C2024       C  0.57584924  0.89666259  0.81176348     0.29800
F2025       F  0.55572703  0.88765762  0.82869132    -0.19600
H2026       H  0.54671563  0.91380379  0.78499799     0.18200
H2027       H  0.64485518  0.90231397  0.80622791     0.18200
F2028       F  0.63576107  0.92799243  0.76038614    -0.19600
C2029       C  0.58852634  0.94057909  0.69126812    -0.21000
C2030       C  0.59209746  0.92543484  0.71580000    -0.09000
C2031       C  0.60504669  0.89941163  0.71346449     0.29800
C2032       C  0.61675024  0.89113840  0.68854258    -0.21000
C2033       C  0.61515491  0.90786963  0.66510140    -0.09000
C2034       C  0.60015743  0.93237137  0.66662553     0.29800
F2035       F  0.59689292  0.94881975  0.64429361    -0.19600
H2036       H  0.57735831  0.95968198  0.69128862     0.18200
H2037       H  0.62740297  0.87171033  0.68770580     0.18200
F2038       F  0.60577067  0.88122031  0.73456327    -0.19600
C2039       C  0.53246704  0.91335320  0.73632571    -0.21000
C2040       C  0.54804043  0.93780773  0.73715200    -0.09000
C2041       C  0.53369676  0.96231554  0.73071583     0.29800
C2042       C  0.50539218  0.96309107  0.73118194    -0.21000
C2043       C  0.48960856  0.93948952  0.73676868    -0.09000
C2044       C  0.50367223  0.91408864  0.73644428     0.29800
F2045       F  0.48971200  0.89008564  0.73840128    -0.19600
H2046       H  0.54261624  0.89367397  0.73780319     0.18200
H2047       H  0.49607429  0.98268427  0.72661675     0.18200
F2048       F  0.54650330  0.98574999  0.72280686    -0.19600
C2049       C  0.58940439  0.10036444  0.77671287    -0.21000
C2050       C  0.59810985  0.07328297  0.77163988    -0.09000
C2051       C  0.61884881  0.06248095  0.78921497     0.29800
C2052       C  0.62818088  0.07733269  0.81198627    -0.21000
C2053       C  0.61775042  0.10338980  0.81778619    -0.09000
C2054       C  0.59871981  0.11502783  0.79940707     0.29800
F2055       F  0.58853576  0.14053773  0.80356264    -0.19600
H2056       H  0.57471964  0.11014556  0.76319898     0.18200
H2057       H  0.64319694  0.06807506  0.82551062     0.18200
F2058       F  0.63078056  0.03787504  0.78460267    -0.19600
C2059       C  0.61807494  0.08867035  0.71789753    -0.21000
C2060       C  0.59787339  0.06776165  0.71936727    -0.09000
C2061       C  0.58997438  0.05540622  0.69426533     0.29800
C2062       C  0.60113707  0.06402839  0.66932855    -0.21000
C2063       C  0.62067037  0.08509442  0.66818421    -0.09000
C2064       C  0.62916145  0.09726273  0.69276725     0.29800
F2065       F  0.64914104  0.11662203  0.69272718    -0.19600
H2066       H  0.62597594  0.09842175  0.73606131     0.18200
H2067       H  0.59453332  0.05393692  0.65074218     0.18200
F2068       F  0.57106622  0.03497572  0.69386114    -0.19600
C2069       C  0.57805379  0.01024111  0.77133730    -0.21000
C2070       C  0.59071124  0.02564444  0.75029856    -0.09000
C2071       C  0.60937525  0.01051275  0.73383086     0.29800
C2072       C  0.60842443  0.98170897  0.73312113    -0.21000
C2073       C  0.58944543  0.96701469  0.74916051    -0.09000
C2074       C  0.57722777  0.98161032  0.77083700     0.29800
F2075       F  0.56156776  0.96858902  0.78976437    -0.19600
H2076       H  0.56796335  0.01981420  0.78815592     0.18200
H2077       H  0.62195002  0.97124193  0.71923264     0.18200
F2078       F  0.62917221  0.02305552  0.71889639    -0.19600
C2079       C  0.53783244  0.05940089  0.77143200    -0.21000
C2080       C  0.55296985  0.06290813  0.74709309    -0.09000
C2081       C  0.53757379  0.07482312  0.72519155     0.29800
C2082       C  0.50876729  0.07534693  0.72555480    -0.21000
C2083       C  0.49329348  0.06558888  0.74811411    -0.09000
C2084       C  0.50920360  0.06131219  0.77224511     0.29800
F2085       F  0.49808948  0.06324040  0.79750914    -0.19600
H2086       H  0.54828430  0.05760919  0.79086656     0.18200
H2087       H  0.49920733  0.08529920  0.70830596     0.18200
F2088       F  0.54956635  0.08893043  0.70446768    -0.19600
loop_ 
_geom_bond_atom_site_label_1 
_geom_bond_atom_site_label_2 
_geom_bond_distance 
_geom_bond_site_symmetry_2 
_ccdc_geom_bond_type 
C1         C2050   1.564       .  S
C1         C2060   1.567       .  S
C1         C2070   1.582       .  S
C1         C2080   1.599       .  S
C2         C2020   1.566       .  S
C2         C2030   1.564       .  S
C2         C2040   1.570       .  S
C2         C2073   1.563       .  S
C3         C1993   1.560       .  S
C3         C2000   1.591       .  S
C3         C2010   1.592       .  S
C3         C2083   1.601       .  S
C4         C1970   1.569       .  S
C4         C1980   1.566       .  S
C4         C2013   1.572       .  S
C4         C2043   1.565       .  S
C5         C1930   1.561       .  S
C5         C1940   1.569       .  S
C5         C1950   1.586       .  S
C5         C1960   1.592       .  S
C6         C1890   1.562       .  S
C6         C1903   1.569       .  S
C6         C1910   1.567       .  S
C6         C1920   1.569       .  S
C7         C1870   1.562       .  S
C7         C1880   1.574       .  S
C7         C1913   1.591       .  S
C7         C1953   1.588       .  S
C8         C1850   1.560       .  S
C8         C1860   1.567       .  S
C8         C1923   1.566       .  S
C8         C1963   1.567       .  S
C9         C1813   1.566       .  S
C9         C1820   1.568       .  S
C9         C1830   1.567       .  S
C9         C1840   1.571       .  S
C10        C1783   1.567       .  S
C10        C1790   1.578       .  S
C10        C1803   1.592       .  S
C10        C1843   1.591       .  S
C11        C1750   1.559       .  S
C11        C1760   1.569       .  S
C11        C1770   1.566       .  S
C11        C1833   1.566       .  S
C12        C1730   1.563       .  S
C12        C1740   1.575       .  S
C12        C1773   1.591       .  S
C12        C1800   1.595       .  S
In13         O15   2.231       .  S
In13         O16   2.286       .  S
In13         O24   2.255       .  S
In13         O18   2.245       .  S
In13         O20   2.238       .  S
In13         O21   2.233       .  S
In13         O22   2.235       .  S
In13         O25   2.291       .  S
C14          O20   1.260       .  A
C14          O22   1.259       .  A
C14        C1723   1.471       .  S
O15          C23   1.257       .  A
O16          C23   1.264       .  A
C17          O24   1.264       .  A
C17          O18   1.261       .  A
C17        C1710   1.479       .  S
C19          O21   1.253       .  A
C19          O25   1.265       .  A
C19        C1690   1.485       .  S
C23        C1700   1.480       .  S
In26         O28   2.247       .  S
In26         O29   2.277       .  S
In26         O37   2.271       .  S
In26         O31   2.209       .  S
In26         O33   2.230       .  S
In26         O34   2.329       .  S
In26         O35   2.240       .  S
In26         O38   2.203       .  S
C27          O33   1.259       .  A
C27          O35   1.261       .  A
C27        C1673   1.472       .  S
O28          C36   1.259       .  A
O29          C36   1.263       .  A
C30          O37   1.269       .  A
C30          O31   1.260       .  A
C30        C1713   1.476       .  S
C32          O34   1.270       .  A
C32          O38   1.252       .  A
C32        C1900   1.497       .  S
C36        C1680   1.492       .  S
In39         O41   2.297       .  S
In39         O42   2.221       .  S
In39         O50   2.257       .  S
In39         O44   2.224       .  S
In39         O46   2.229       .  S
In39         O47   2.288       .  S
In39         O48   2.237       .  S
In39         O51   2.222       .  S
C40          O46   1.259       .  A
C40          O48   1.259       .  A
C40        C1720   1.469       .  S
O41          C49   1.265       .  A
O42          C49   1.254       .  A
C43          O50   1.268       .  A
C43          O44   1.261       .  A
C43        C1663   1.478       .  S
C45          O47   1.265       .  A
C45          O51   1.255       .  A
C45        C1650   1.482       .  S
C49        C1640   1.488       .  S
In52         O54   2.211       .  S
In52         O55   2.304       .  S
In52         O63   2.268       .  S
In52         O57   2.208       .  S
In52         O59   2.224       .  S
In52         O60   2.284       .  S
In52         O61   2.234       .  S
In52         O64   2.240       .  S
C53          O59   1.260       .  A
C53          O61   1.259       .  A
C53        C1633   1.468       .  S
O54          C62   1.255       .  A
O55          C62   1.270       .  A
C56          O63   1.269       .  A
C56          O57   1.261       .  A
C56        C1660   1.472       .  S
C58          O60   1.265       .  A
C58          O64   1.258       .  A
C58        C1683   1.490       .  S
C62        C1623   1.488       .  S
In65         O67   2.223       .  S
In65         O68   2.294       .  S
In65         O76   2.262       .  S
In65         O70   2.216       .  S
In65         O72   2.242       .  S
In65         O73   2.265       .  S
In65         O74   2.223       .  S
In65         O77   2.256       .  S
C66          O72   1.261       .  A
C66          O74   1.258       .  A
C66        C1610   1.471       .  S
O67          C75   1.255       .  A
O68          C75   1.268       .  A
C69          O76   1.268       .  A
C69          O70   1.262       .  A
C69        C1600   1.470       .  S
C71          O73   1.259       .  A
C71          O77   1.259       .  A
C71        C1703   1.487       .  S
C75        C2053   1.489       .  S
In78         O80   2.271       .  S
In78         O81   2.202       .  S
In78         O89   2.277       .  S
In78         O83   2.262       .  S
In78         O85   2.234       .  S
In78         O86   2.212       .  S
In78         O87   2.307       .  S
In78         O90   2.243       .  S
C79          O85   1.256       .  A
C79          O87   1.270       .  A
C79        C1570   1.496       .  S
O80          C88   1.268       .  A
O81          C88   1.260       .  A
C82          O89   1.261       .  A
C82          O83   1.259       .  A
C82        C1590   1.495       .  S
C84          O86   1.257       .  A
C84          O90   1.261       .  A
C84        C1630   1.466       .  S
C88        C1580   1.470       .  S
In91         O93   2.323       .  S
In91         O94   2.202       .  S
In91        O102   2.273       .  S
In91         O96   2.218       .  S
In91         O98   2.237       .  S
In91         O99   2.279       .  S
In91        O100   2.227       .  S
In91        O103   2.259       .  S
C92          O98   1.261       .  A
C92         O100   1.260       .  A
C92        C1670   1.472       .  S
O93         C101   1.269       .  A
O94         C101   1.252       .  A
C95         O102   1.268       .  A
C95          O96   1.258       .  A
C95        C1603   1.477       .  S
C97          O99   1.264       .  A
C97         O103   1.260       .  A
C97        C1593   1.494       .  S
C101       C1863   1.493       .  S
In104       O106   2.270       .  S
In104       O107   2.199       .  S
In104       O115   2.247       .  S
In104       O109   2.274       .  S
In104       O111   2.307       .  S
In104       O112   2.229       .  S
In104       O113   2.219       .  S
In104       O116   2.233       .  S
C105        O111   1.268       .  A
C105        O113   1.253       .  A
C105       C1990   1.490       .  S
O106        C114   1.270       .  A
O107        C114   1.261       .  A
C108        O115   1.259       .  A
C108        O109   1.262       .  A
C108       C1653   1.489       .  S
C110        O112   1.258       .  A
C110        O116   1.260       .  A
C110       C1613   1.469       .  S
C114       C1583   1.478       .  S
In117       O119   2.231       .  S
In117       O120   2.287       .  S
In117       O128   2.267       .  S
In117       O122   2.214       .  S
In117       O124   2.218       .  S
In117       O125   2.238       .  S
In117       O126   2.234       .  S
In117       O129   2.283       .  S
C118        O124   1.260       .  A
C118        O126   1.262       .  A
C118       C1540   1.467       .  S
O119        C127   1.255       .  A
O120        C127   1.264       .  A
C121        O128   1.267       .  A
C121        O122   1.260       .  A
C121       C1560   1.479       .  S
C123        O125   1.255       .  A
C123        O129   1.266       .  A
C123       C1943   1.487       .  S
C127       C1550   1.484       .  S
In130       O132   2.250       .  S
In130       O133   2.270       .  S
In130       O141   2.280       .  S
In130       O135   2.196       .  S
In130       O137   2.227       .  S
In130       O138   2.277       .  S
In130       O139   2.238       .  S
In130       O142   2.237       .  S
C131        O137   1.258       .  A
C131        O139   1.260       .  A
C131       C1513   1.468       .  S
O132        C140   1.256       .  A
O133        C140   1.261       .  A
C134        O141   1.268       .  A
C134        O135   1.259       .  A
C134       C1533   1.471       .  S
C136        O138   1.266       .  A
C136        O142   1.258       .  A
C136       C1500   1.488       .  S
C140       C1520   1.485       .  S
In143       O145   2.301       .  S
In143       O146   2.223       .  S
In143       O154   2.232       .  S
In143       O148   2.252       .  S
In143       O150   2.227       .  S
In143       O151   2.237       .  S
In143       O152   2.226       .  S
In143       O155   2.284       .  S
C144        O150   1.261       .  A
C144        O152   1.260       .  A
C144       C1543   1.467       .  S
O145        C153   1.267       .  A
O146        C153   1.253       .  A
C147        O154   1.261       .  A
C147        O148   1.265       .  A
C147       C1490   1.474       .  S
C149        O151   1.257       .  A
C149        O155   1.264       .  A
C149       C1523   1.486       .  S
C153       C1883   1.485       .  S
In156       O158   2.198       .  S
In156       O159   2.288       .  S
In156       O167   2.263       .  S
In156       O161   2.212       .  S
In156       O163   2.228       .  S
In156       O164   2.283       .  S
In156       O165   2.235       .  S
In156       O168   2.221       .  S
C157        O163   1.260       .  A
C157        O165   1.259       .  A
C157       C1510   1.468       .  S
O158        C166   1.255       .  A
O159        C166   1.269       .  A
C160        O167   1.267       .  A
C160        O161   1.260       .  A
C160       C1480   1.472       .  S
C162        O164   1.266       .  A
C162        O168   1.258       .  A
C162       C1553   1.483       .  S
C166       C1470   1.479       .  S
In169       O171   2.266       .  S
In169       O172   2.251       .  S
In169       O180   2.264       .  S
In169       O174   2.198       .  S
In169       O176   2.241       .  S
In169       O177   2.288       .  S
In169       O178   2.220       .  S
In169       O181   2.213       .  S
C170        O176   1.261       .  A
C170        O178   1.259       .  A
C170       C1450   1.468       .  S
O171        C179   1.260       .  A
O172        C179   1.257       .  A
C173        O180   1.269       .  A
C173        O174   1.263       .  A
C173       C1530   1.478       .  S
C175        O177   1.266       .  A
C175        O181   1.253       .  A
C175       C1440   1.480       .  S
C179       C1460   1.485       .  S
In182       O184   2.262       .  S
In182       O185   2.247       .  S
In182       O193   2.223       .  S
In182       O187   2.268       .  S
In182       O189   2.239       .  S
In182       O190   2.225       .  S
In182       O191   2.248       .  S
In182       O194   2.301       .  S
C183        O189   1.259       .  A
C183        O191   1.259       .  A
C183       C1430   1.474       .  S
O184        C192   1.260       .  A
O185        C192   1.259       .  A
C186        O193   1.260       .  A
C186        O187   1.264       .  A
C186       C1563   1.478       .  S
C188        O190   1.255       .  A
C188        O194   1.267       .  A
C188       C2023   1.490       .  S
C192       C1420   1.483       .  S
In195       O197   2.218       .  S
In195       O198   2.240       .  S
In195       O206   2.278       .  S
In195       O200   2.237       .  S
In195       O202   2.295       .  S
In195       O203   2.206       .  S
In195       O204   2.236       .  S
In195       O207   2.263       .  S
C196        O202   1.264       .  A
C196        O204   1.252       .  A
C196       C1413   1.490       .  S
O197        C205   1.258       .  A
O198        C205   1.260       .  A
C199        O206   1.263       .  A
C199        O200   1.256       .  A
C199       C1423   1.485       .  S
C201        O203   1.261       .  A
C201        O207   1.269       .  A
C201       C1493   1.471       .  S
C205       C1453   1.466       .  S
In208       O210   2.309       .  S
In208       O211   2.211       .  S
In208       O219   2.261       .  S
In208       O213   2.229       .  S
In208       O215   2.237       .  S
In208       O216   2.273       .  S
In208       O217   2.239       .  S
In208       O220   2.237       .  S
C209        O215   1.260       .  A
C209        O217   1.260       .  A
C209       C1433   1.472       .  S
O210        C218   1.267       .  A
O211        C218   1.255       .  A
C212        O219   1.265       .  A
C212        O213   1.259       .  A
C212       C1483   1.476       .  S
C214        O216   1.264       .  A
C214        O220   1.258       .  A
C214       C1463   1.483       .  S
C218       C1973   1.490       .  S
C221       C1380   1.558       .  S
C221       C1390   1.585       .  S
C221       C1400   1.581       .  S
C221       C1693   1.563       .  S
C222       C1350   1.572       .  S
C222       C1360   1.580       .  S
C222       C1370   1.579       .  S
C222       C1443   1.561       .  S
C223       C1340   1.573       .  S
C223       C1373   1.576       .  S
C223       C1393   1.571       .  S
C223       C1410   1.568       .  S
C224       C1333   1.567       .  S
C224       C1363   1.576       .  S
C224       C1403   1.571       .  S
C224       C1643   1.570       .  S
In225       O227   2.270       .  S
In225       O228   2.252       .  S
In225       O236   2.279       .  S
In225       O230   2.210       .  S
In225       O232   2.234       .  S
In225       O233   2.308       .  S
In225       O234   2.244       .  S
In225       O237   2.207       .  S
C226        O232   1.260       .  A
C226        O234   1.260       .  A
C226       C1300   1.472       .  S
O227        C235   1.260       .  A
O228        C235   1.257       .  A
C229        O236   1.267       .  A
C229        O230   1.260       .  A
C229       C1320   1.481       .  S
C231        O233   1.269       .  A
C231        O237   1.256       .  A
C231       C1763   1.493       .  S
C235       C1310   1.489       .  S
In238       O240   2.243       .  S
In238       O241   2.235       .  S
In238       O249   2.266       .  S
In238       O243   2.260       .  S
In238       O245   2.208       .  S
In238       O246   2.200       .  S
In238       O247   2.307       .  S
In238       O250   2.274       .  S
C239        O245   1.254       .  A
C239        O247   1.268       .  A
C239       C1270   1.488       .  S
O240        C248   1.261       .  A
O241        C248   1.261       .  A
C242        O249   1.259       .  A
C242        O243   1.258       .  A
C242       C1313   1.489       .  S
C244        O246   1.261       .  A
C244        O250   1.268       .  A
C244       C1290   1.481       .  S
C248       C1280   1.475       .  S
In251       O253   2.283       .  S
In251       O254   2.204       .  S
In251       O262   2.248       .  S
In251       O256   2.282       .  S
In251       O258   2.293       .  S
In251       O259   2.233       .  S
In251       O260   2.243       .  S
In251       O263   2.248       .  S
C252        O258   1.266       .  A
C252        O260   1.257       .  A
C252       C1240   1.492       .  S
O253        C261   1.270       .  A
O254        C261   1.261       .  A
C255        O262   1.256       .  A
C255        O256   1.261       .  A
C255       C1253   1.489       .  S
C257        O259   1.258       .  A
C257        O263   1.259       .  A
C257       C1283   1.473       .  S
C261       C1260   1.481       .  S
In264       O266   2.211       .  S
In264       O267   2.308       .  S
In264       O275   2.273       .  S
In264       O269   2.205       .  S
In264       O271   2.234       .  S
In264       O272   2.261       .  S
In264       O273   2.238       .  S
In264       O276   2.273       .  S
C265        O271   1.260       .  A
C265        O273   1.261       .  A
C265       C1303   1.473       .  S
O266        C274   1.255       .  A
O267        C274   1.269       .  A
C268        O275   1.267       .  A
C268        O269   1.261       .  A
C268       C1230   1.480       .  S
C270        O272   1.259       .  A
C270        O276   1.259       .  A
C270       C1250   1.491       .  S
C274       C1823   1.493       .  S
In277       O279   2.262       .  S
In277       O280   2.269       .  S
In277       O288   2.274       .  S
In277       O282   2.216       .  S
In277       O284   2.237       .  S
In277       O285   2.294       .  S
In277       O286   2.232       .  S
In277       O289   2.228       .  S
C278        O284   1.260       .  A
C278        O286   1.259       .  A
C278       C1213   1.470       .  S
O279        C287   1.258       .  A
O280        C287   1.260       .  A
C281        O288   1.268       .  A
C281        O282   1.262       .  A
C281       C1263   1.486       .  S
C283        O285   1.267       .  A
C283        O289   1.256       .  A
C283       C1200   1.489       .  S
C287       C1220   1.490       .  S
In290       O292   2.236       .  S
In290       O293   2.226       .  S
In290       O301   2.213       .  S
In290       O295   2.302       .  S
In290       O297   2.259       .  S
In290       O298   2.203       .  S
In290       O299   2.268       .  S
In290       O302   2.279       .  S
C291        O297   1.259       .  A
C291        O299   1.260       .  A
C291       C1180   1.490       .  S
O292        C300   1.261       .  A
O293        C300   1.260       .  A
C294        O301   1.254       .  A
C294        O295   1.269       .  A
C294       C1933   1.490       .  S
C296        O298   1.260       .  A
C296        O302   1.268       .  A
C296       C1323   1.483       .  S
C300       C1190   1.470       .  S
In303       O305   2.233       .  S
In303       O306   2.232       .  S
In303       O314   2.271       .  S
In303       O308   2.250       .  S
In303       O310   2.292       .  S
In303       O311   2.192       .  S
In303       O312   2.224       .  S
In303       O315   2.280       .  S
C304        O310   1.267       .  A
C304        O312   1.255       .  A
C304       C1170   1.488       .  S
O305        C313   1.259       .  A
O306        C313   1.260       .  A
C307        O314   1.261       .  A
C307        O308   1.257       .  A
C307       C1183   1.488       .  S
C309        O311   1.261       .  A
C309        O315   1.270       .  A
C309       C1233   1.482       .  S
C313       C1210   1.468       .  S
In316       O318   2.236       .  S
In316       O319   2.226       .  S
In316       O327   2.266       .  S
In316       O321   2.255       .  S
In316       O323   2.307       .  S
In316       O324   2.196       .  S
In316       O325   2.202       .  S
In316       O328   2.283       .  S
C317        O323   1.270       .  A
C317        O325   1.254       .  A
C317       C1853   1.491       .  S
O318        C326   1.261       .  A
O319        C326   1.259       .  A
C320        O327   1.260       .  A
C320        O321   1.258       .  A
C320       C1223   1.488       .  S
C322        O324   1.259       .  A
C322        O328   1.269       .  A
C322       C1293   1.482       .  S
C326       C1193   1.469       .  S
C329       C1140   1.567       .  S
C329       C1153   1.570       .  S
C329       C1160   1.563       .  S
C329       C1503   1.564       .  S
C330       C1120   1.570       .  S
C330       C1130   1.570       .  S
C330       C1203   1.563       .  S
C330       C1573   1.568       .  S
C331       C1133   1.563       .  S
C331       C1163   1.562       .  S
C331       C1173   1.564       .  S
C331       C1473   1.558       .  S
C332       C1110   1.565       .  S
C332       C1123   1.572       .  S
C332       C1150   1.569       .  S
C332       C1620   1.568       .  S
In333       O335   2.263       .  S
In333       O336   2.287       .  S
In333       O344   2.284       .  S
In333       O338   2.219       .  S
In333       O340   2.243       .  S
In333       O341   2.246       .  S
In333       O342   2.249       .  S
In333       O345   2.298       .  S
C334        O340   1.257       .  A
C334        O342   1.259       .  A
C334       C1093   1.474       .  S
O335        C343   1.257       .  A
O336        C343   1.260       .  A
C337        O344   1.269       .  A
C337        O338   1.261       .  A
C337       C1080   1.489       .  S
C339        O341   1.255       .  A
C339        O345   1.265       .  A
C339       C1793   1.493       .  S
C343       C1103   1.491       .  S
In346       O348   2.278       .  S
In346       O349   2.228       .  S
In346       O357   2.278       .  S
In346       O351   2.250       .  S
In346       O353   2.298       .  S
In346       O354   2.227       .  S
In346       O355   2.223       .  S
In346       O358   2.231       .  S
C347        O353   1.268       .  A
C347        O355   1.255       .  A
C347       C1143   1.488       .  S
O348        C356   1.266       .  A
O349        C356   1.261       .  A
C350        O357   1.264       .  A
C350        O351   1.256       .  A
C350       C1060   1.489       .  S
C352        O354   1.259       .  A
C352        O358   1.259       .  A
C352       C1070   1.467       .  S
C356       C1083   1.480       .  S
In359       O361   2.239       .  S
In359       O362   2.294       .  S
In359       O370   2.281       .  S
In359       O364   2.208       .  S
In359       O366   2.231       .  S
In359       O367   2.287       .  S
In359       O368   2.238       .  S
In359       O371   2.239       .  S
C360        O366   1.258       .  A
C360        O368   1.258       .  A
C360       C1073   1.467       .  S
O361        C369   1.256       .  A
O362        C369   1.266       .  A
C363        O370   1.269       .  A
C363        O364   1.260       .  A
C363       C1050   1.481       .  S
C365        O367   1.264       .  A
C365        O371   1.257       .  A
C365       C1040   1.488       .  S
C369       C1113   1.491       .  S
In372       O374   2.227       .  S
In372       O375   2.243       .  S
In372       O383   2.257       .  S
In372       O377   2.281       .  S
In372       O379   2.299       .  S
In372       O380   2.219       .  S
In372       O381   2.234       .  S
In372       O384   2.271       .  S
C373        O379   1.262       .  A
C373        O381   1.256       .  A
C373       C1020   1.491       .  S
O374        C382   1.257       .  A
O375        C382   1.260       .  A
C376        O383   1.255       .  A
C376        O377   1.260       .  A
C376       C1100   1.489       .  S
C378        O380   1.263       .  A
C378        O384   1.269       .  A
C378       C1053   1.486       .  S
C382       C1033   1.467       .  S
In385       O387   2.210       .  S
In385       O388   2.301       .  S
In385       O396   2.280       .  S
In385       O390   2.212       .  S
In385       O392   2.233       .  S
In385       O393   2.278       .  S
In385       O394   2.229       .  S
In385       O397   2.243       .  S
C386        O392   1.260       .  A
C386        O394   1.259       .  A
C386       C1010   1.471       .  S
O387        C395   1.254       .  A
O388        C395   1.269       .  A
C389        O396   1.268       .  A
C389        O390   1.258       .  A
C389       C1000   1.473       .  S
C391        O393   1.264       .  A
C391        O397   1.259       .  A
C391       C1063   1.485       .  S
C395       C1873   1.486       .  S
In398       O400   2.264       .  S
In398       O401   2.295       .  S
In398       O409   2.269       .  S
In398       O403   2.214       .  S
In398       O405   2.248       .  S
In398       O406   2.269       .  S
In398       O407   2.221       .  S
In398       O410   2.284       .  S
C399        O405   1.260       .  A
C399        O407   1.255       .  A
C399       C1030   1.466       .  S
O400        C408   1.254       .  A
O401        C408   1.259       .  A
C402        O409   1.271       .  A
C402        O403   1.263       .  A
C402        C980   1.484       .  S
C404        O406   1.259       .  A
C404        O410   1.258       .  A
C404        C970   1.494       .  S
C408        C990   1.493       .  S
In411       O413   2.248       .  S
In411       O414   2.239       .  S
In411       O422   2.254       .  S
In411       O416   2.288       .  S
In411       O418   2.242       .  S
In411       O419   2.233       .  S
In411       O420   2.297       .  S
In411       O423   2.261       .  S
C412        O418   1.254       .  A
C412        O420   1.265       .  A
C412       C1743   1.490       .  S
O413        C421   1.258       .  A
O414        C421   1.258       .  A
C415        O422   1.257       .  A
C415        O416   1.263       .  A
C415        C993   1.492       .  S
C417        O419   1.262       .  A
C417        O423   1.267       .  A
C417       C1003   1.484       .  S
C421       C1090   1.474       .  S
In424       O426   2.267       .  S
In424       O427   2.216       .  S
In424       O435   2.277       .  S
In424       O429   2.264       .  S
In424       O431   2.310       .  S
In424       O432   2.233       .  S
In424       O433   2.222       .  S
In424       O436   2.245       .  S
C425        O431   1.268       .  A
C425        O433   1.256       .  A
C425       C1893   1.494       .  S
O426        C434   1.267       .  A
O427        C434   1.261       .  A
C428        O435   1.259       .  A
C428        O429   1.258       .  A
C428       C1043   1.491       .  S
C430        O432   1.259       .  A
C430        O436   1.260       .  A
C430       C1013   1.473       .  S
C434        C983   1.475       .  S
In437       O439   2.245       .  S
In437       O440   2.293       .  S
In437       O448   2.265       .  S
In437       O442   2.235       .  S
In437       O444   2.245       .  S
In437       O445   2.304       .  S
In437       O446   2.242       .  S
In437       O449   2.244       .  S
C438        O444   1.257       .  A
C438        O446   1.257       .  A
C438        C953   1.472       .  S
O439        C447   1.257       .  A
O440        C447   1.263       .  A
C441        O448   1.267       .  A
C441        O442   1.262       .  A
C441        C940   1.482       .  S
C443        O445   1.266       .  A
C443        O449   1.254       .  A
C443       C2003   1.494       .  S
C447        C960   1.488       .  S
In450       O452   2.236       .  S
In450       O453   2.283       .  S
In450       O461   2.261       .  S
In450       O455   2.226       .  S
In450       O457   2.230       .  S
In450       O458   2.230       .  S
In450       O459   2.227       .  S
In450       O462   2.293       .  S
C451        O457   1.261       .  A
C451        O459   1.259       .  A
C451        C930   1.467       .  S
O452        C460   1.256       .  A
O453        C460   1.263       .  A
C454        O461   1.267       .  A
C454        O455   1.262       .  A
C454        C943   1.479       .  S
C456        O458   1.252       .  A
C456        O462   1.265       .  A
C456        C910   1.480       .  S
C460        C920   1.483       .  S
In463       O465   2.231       .  S
In463       O466   2.237       .  S
In463       O474   2.254       .  S
In463       O468   2.272       .  S
In463       O470   2.236       .  S
In463       O471   2.220       .  S
In463       O472   2.316       .  S
In463       O475   2.267       .  S
C464        O470   1.253       .  A
C464        O472   1.264       .  A
C464        C880   1.491       .  S
O465        C473   1.258       .  A
O466        C473   1.257       .  A
C467        O474   1.259       .  A
C467        O468   1.262       .  A
C467        C890   1.490       .  S
C469        O471   1.261       .  A
C469        O475   1.270       .  A
C469        C900   1.476       .  S
C473        C933   1.467       .  S
In476       O478   2.207       .  S
In476       O479   2.323       .  S
In476       O487   2.221       .  S
In476       O481   2.270       .  S
In476       O483   2.225       .  S
In476       O484   2.282       .  S
In476       O485   2.238       .  S
In476       O488   2.248       .  S
C477        O483   1.259       .  A
C477        O485   1.262       .  A
C477        C870   1.468       .  S
O478        C486   1.251       .  A
O479        C486   1.268       .  A
C480        O487   1.258       .  A
C480        O481   1.267       .  A
C480        C903   1.476       .  S
C482        O484   1.262       .  A
C482        O488   1.259       .  A
C482        C963   1.492       .  S
C486       C1330   1.490       .  S
In489       O491   2.198       .  S
In489       O492   2.329       .  S
In489       O500   2.267       .  S
In489       O494   2.232       .  S
In489       O496   2.234       .  S
In489       O497   2.277       .  S
In489       O498   2.242       .  S
In489       O501   2.239       .  S
C490        O496   1.259       .  A
C490        O498   1.260       .  A
C490        C860   1.473       .  S
O491        C499   1.253       .  A
O492        C499   1.269       .  A
C493        O500   1.266       .  A
C493        O494   1.259       .  A
C493        C850   1.478       .  S
C495        O497   1.264       .  A
C495        O501   1.258       .  A
C495        C923   1.486       .  S
C499       C1810   1.497       .  S
In502       O504   2.233       .  S
In502       O505   2.237       .  S
In502       O513   2.302       .  S
In502       O507   2.247       .  S
In502       O509   2.286       .  S
In502       O510   2.244       .  S
In502       O511   2.245       .  S
In502       O514   2.254       .  S
C503        O509   1.262       .  A
C503        O511   1.256       .  A
C503        C840   1.491       .  S
O504        C512   1.258       .  A
O505        C512   1.260       .  A
C506        O513   1.265       .  A
C506        O507   1.252       .  A
C506       C1353   1.486       .  S
C508        O510   1.264       .  A
C508        O514   1.266       .  A
C508        C830   1.483       .  S
C512        C873   1.470       .  S
In515       O517   2.232       .  S
In515       O518   2.305       .  S
In515       O526   2.271       .  S
In515       O520   2.220       .  S
In515       O522   2.233       .  S
In515       O523   2.292       .  S
In515       O524   2.234       .  S
In515       O527   2.243       .  S
C516        O522   1.259       .  A
C516        O524   1.259       .  A
C516        C950   1.470       .  S
O517        C525   1.253       .  A
O518        C525   1.266       .  A
C519        O526   1.268       .  A
C519        O520   1.260       .  A
C519        C853   1.480       .  S
C521        O523   1.264       .  A
C521        O527   1.257       .  A
C521        C843   1.488       .  S
C525       C1983   1.490       .  S
In528       O530   2.247       .  S
In528       O531   2.277       .  S
In528       O539   2.272       .  S
In528       O533   2.225       .  S
In528       O535   2.238       .  S
In528       O536   2.314       .  S
In528       O537   2.237       .  S
In528       O540   2.228       .  S
C529        O535   1.260       .  A
C529        O537   1.259       .  A
C529        C863   1.473       .  S
O530        C538   1.259       .  A
O531        C538   1.265       .  A
C532        O539   1.267       .  A
C532        O533   1.260       .  A
C532        C833   1.478       .  S
C534        O536   1.269       .  A
C534        O540   1.255       .  A
C534       C1780   1.497       .  S
C538        C893   1.488       .  S
In541       O543   2.282       .  S
In541       O544   2.212       .  S
In541       O552   2.253       .  S
In541       O546   2.270       .  S
In541       O548   2.299       .  S
In541       O549   2.248       .  S
In541       O550   2.221       .  S
In541       O553   2.232       .  S
C542        O548   1.266       .  A
C542        O550   1.255       .  A
C542       C2033   1.489       .  S
O543        C551   1.267       .  A
O544        C551   1.260       .  A
C545        O552   1.258       .  A
C545        O546   1.260       .  A
C545        C810   1.486       .  S
C547        O549   1.260       .  A
C547        O553   1.259       .  A
C547        C800   1.473       .  S
C551        C820   1.484       .  S
In554       O556   2.277       .  S
In554       O557   2.196       .  S
In554       O565   2.254       .  S
In554       O559   2.253       .  S
In554       O561   2.308       .  S
In554       O562   2.228       .  S
In554       O563   2.183       .  S
In554       O566   2.239       .  S
C555        O561   1.269       .  A
C555        O563   1.253       .  A
C555       C1383   1.479       .  S
O556        C564   1.270       .  A
O557        C564   1.262       .  A
C558        O565   1.258       .  A
C558        O559   1.260       .  A
C558        C780   1.486       .  S
C560        O562   1.261       .  A
C560        O566   1.260       .  A
C560        C770   1.470       .  S
C564        C790   1.484       .  S
In567       O569   2.289       .  S
In567       O570   2.236       .  S
In567       O578   2.264       .  S
In567       O572   2.215       .  S
In567       O574   2.242       .  S
In567       O575   2.270       .  S
In567       O576   2.227       .  S
In567       O579   2.249       .  S
C568        O574   1.260       .  A
C568        O576   1.261       .  A
C568        C803   1.470       .  S
O569        C577   1.264       .  A
O570        C577   1.255       .  A
C571        O578   1.267       .  A
C571        O572   1.261       .  A
C571        C760   1.480       .  S
C573        O575   1.259       .  A
C573        O579   1.257       .  A
C573        C783   1.487       .  S
C577       C2063   1.486       .  S
In580       O582   2.252       .  S
In580       O583   2.276       .  S
In580       O591   2.259       .  S
In580       O585   2.213       .  S
In580       O587   2.240       .  S
In580       O588   2.258       .  S
In580       O589   2.237       .  S
In580       O592   2.271       .  S
C581        O587   1.260       .  A
C581        O589   1.259       .  A
C581        C773   1.471       .  S
O582        C590   1.254       .  A
O583        C590   1.263       .  A
C584        O591   1.268       .  A
C584        O585   1.263       .  A
C584        C750   1.481       .  S
C586        O588   1.256       .  A
C586        O592   1.259       .  A
C586        C813   1.487       .  S
C590       C1343   1.483       .  S
In593       O595   2.237       .  S
In593       O596   2.285       .  S
In593       O604   2.278       .  S
In593       O598   2.200       .  S
In593       O600   2.237       .  S
In593       O601   2.275       .  S
In593       O602   2.226       .  S
In593       O605   2.229       .  S
C594        O600   1.260       .  A
C594        O602   1.258       .  A
C594        C730   1.468       .  S
O595        C603   1.255       .  A
O596        C603   1.262       .  A
C597        O604   1.268       .  A
C597        O598   1.261       .  A
C597        C793   1.480       .  S
C599        O601   1.266       .  A
C599        O605   1.256       .  A
C599        C720   1.483       .  S
C603        C743   1.485       .  S
In606       O608   2.272       .  S
In606       O609   2.250       .  S
In606       O617   2.207       .  S
In606       O611   2.270       .  S
In606       O613   2.230       .  S
In606       O614   2.306       .  S
In606       O615   2.247       .  S
In606       O618   2.201       .  S
C607        O613   1.257       .  A
C607        O615   1.260       .  A
C607        C710   1.471       .  S
O608        C616   1.261       .  A
O609        C616   1.259       .  A
C610        O617   1.261       .  A
C610        O611   1.267       .  A
C610        C823   1.477       .  S
C612        O614   1.269       .  A
C612        O618   1.254       .  A
C612       C1753   1.487       .  S
C616        C700   1.489       .  S
In619       O621   2.243       .  S
In619       O622   2.229       .  S
In619       O630   2.245       .  S
In619       O624   2.281       .  S
In619       O626   2.317       .  S
In619       O627   2.206       .  S
In619       O628   2.215       .  S
In619       O631   2.263       .  S
C620        O626   1.268       .  A
C620        O628   1.255       .  A
C620        C693   1.493       .  S
O621        C629   1.261       .  A
O622        C629   1.257       .  A
C623        O630   1.258       .  A
C623        O624   1.262       .  A
C623        C703   1.490       .  S
C625        O627   1.260       .  A
C625        O631   1.268       .  A
C625        C763   1.474       .  S
C629        C733   1.469       .  S
In632       O634   2.239       .  S
In632       O635   2.234       .  S
In632       O643   2.281       .  S
In632       O637   2.236       .  S
In632       O639   2.293       .  S
In632       O640   2.213       .  S
In632       O641   2.225       .  S
In632       O644   2.271       .  S
C633        O639   1.267       .  A
C633        O641   1.256       .  A
C633       C1733   1.490       .  S
O634        C642   1.259       .  A
O635        C642   1.257       .  A
C636        O643   1.263       .  A
C636        O637   1.257       .  A
C636        C740   1.486       .  S
C638        O640   1.261       .  A
C638        O644   1.267       .  A
C638        C753   1.479       .  S
C642        C713   1.470       .  S
C645        C670   1.580       .  S
C645        C680   1.575       .  S
C645        C690   1.572       .  S
C645       C1273   1.568       .  S
C646        C660   1.575       .  S
C646        C673   1.572       .  S
C646        C913   1.569       .  S
C646       C1243   1.574       .  S
C647        C650   1.573       .  S
C647        C663   1.571       .  S
C647        C883   1.566       .  S
C647       C1023   1.562       .  S
C648        C653   1.572       .  S
C648        C683   1.571       .  S
C648        C723   1.570       .  S
C648        C973   1.579       .  S
C649        C650   1.413       .  A
C649        C654   1.393       .  A
C649        H656   1.083       .  S
C650        C651   1.416       .  A
C651        C652   1.417   1_455  A
C651        F658   1.354       .  S
C652        C653   1.418       .  A
C652        H657   1.082       .  S
C653        C654   1.419   1_655  A
C654        F655   1.355   1_455  S
C659        C660   1.413       .  A
C659        C664   1.385       .  A
C659        H666   1.081       .  S
C660        C661   1.420       .  A
C661        C662   1.417       .  A
C661        F668   1.357       .  S
C662        C663   1.415       .  A
C662        H667   1.081       .  S
C663        C664   1.415       .  A
C664        F665   1.357       .  S
C669        C670   1.416       .  A
C669        C674   1.408   1_655  A
C669        H676   1.075       .  S
C670        C671   1.420   1_655  A
C671        C672   1.397       .  A
C671        F678   1.358   1_455  S
C672        C673   1.411       .  A
C672        H677   1.083       .  S
C673        C674   1.418       .  A
C674        F675   1.355       .  S
C679        C680   1.418       .  A
C679        C684   1.409       .  A
C679        H686   1.074       .  S
C680        C681   1.417       .  A
C681        C682   1.397       .  A
C681        F688   1.358       .  S
C682        C683   1.413       .  A
C682        H687   1.080       .  S
C683        C684   1.416       .  A
C684        F685   1.355       .  S
C689        C690   1.421       .  A
C689        C694   1.414       .  A
C689        H696   1.083       .  S
C690        C691   1.424       .  A
C691        C692   1.394       .  A
C691        F698   1.356       .  S
C692        C693   1.401       .  A
C692        H697   1.084       .  S
C693        C694   1.405       .  A
C694        F695   1.357       .  S
C699        C700   1.405       .  A
C699        C704   1.400   1_565  A
C699        H706   1.083       .  S
C700        C701   1.410       .  A
C701        C702   1.406   1_565  A
C701        F708   1.358       .  S
C702        C703   1.407       .  A
C702        H707   1.083       .  S
C703        C704   1.409       .  A
C704        F705   1.357       .  S
C709        C710   1.404       .  A
C709        C714   1.393       .  A
C709        H716   1.083       .  S
C710        C711   1.406       .  A
C711        C712   1.395       .  A
C711        F718   1.357       .  S
C712        C713   1.404       .  A
C712        H717   1.083       .  S
C713        C714   1.406       .  A
C714        F715   1.358       .  S
C719        C720   1.400       .  A
C719        C724   1.403       .  A
C719        H726   1.083       .  S
C720        C721   1.404       .  A
C721        C722   1.398       .  A
C721        F728   1.358       .  S
C722        C723   1.416       .  A
C722        H727   1.083       .  S
C723        C724   1.424       .  A
C724        F725   1.355       .  S
C729        C730   1.402       .  A
C729        C734   1.394       .  A
C729        H736   1.083       .  S
C730        C731   1.407       .  A
C731        C732   1.393       .  A
C731        F738   1.358       .  S
C732        C733   1.402       .  A
C732        H737   1.083       .  S
C733        C734   1.407       .  A
C734        F735   1.358       .  S
C739        C740   1.407       .  A
C739        C744   1.405   1_565  A
C739        H746   1.083       .  S
C740        C741   1.409       .  A
C741        C742   1.399   1_565  A
C741        F748   1.358       .  S
C742        C743   1.405       .  A
C742        H747   1.083       .  S
C743        C744   1.409       .  A
C744        F745   1.357       .  S
C749        C750   1.407       .  A
C749        C754   1.405       .  A
C749        H756   1.083       .  S
C750        C751   1.407       .  A
C751        C752   1.393       .  A
C751        F758   1.358       .  S
C752        C753   1.403       .  A
C752        H757   1.084       .  S
C753        C754   1.408       .  A
C754        F755   1.357       .  S
C759        C760   1.405       .  A
C759        C764   1.393       .  A
C759        H766   1.083       .  S
C760        C761   1.408       .  A
C761        C762   1.403       .  A
C761        F768   1.357       .  S
C762        C763   1.405       .  A
C762        H767   1.083       .  S
C763        C764   1.405       .  A
C764        F765   1.358       .  S
C769        C770   1.403       .  A
C769        C774   1.393   1_545  A
C769        H776   1.083       .  S
C770        C771   1.407       .  A
C771        C772   1.395   1_545  A
C771        F778   1.358       .  S
C772        C773   1.404       .  A
C772        H777   1.083       .  S
C773        C774   1.406       .  A
C774        F775   1.357       .  S
C779        C780   1.408       .  A
C779        C784   1.403       .  A
C779        H786   1.083       .  S
C780        C781   1.409       .  A
C781        C782   1.399       .  A
C781        F788   1.357       .  S
C782        C783   1.406       .  A
C782        H787   1.083       .  S
C783        C784   1.409       .  A
C784        F785   1.358       .  S
C789        C790   1.404       .  A
C789        C794   1.389       .  A
C789        H796   1.083       .  S
C790        C791   1.410       .  A
C791        C792   1.409       .  A
C791        F798   1.357       .  S
C792        C793   1.408       .  A
C792        H797   1.083       .  S
C793        C794   1.405       .  A
C794        F795   1.358       .  S
C799        C800   1.404       .  A
C799        C804   1.397   1_565  A
C799        H806   1.083       .  S
C800        C801   1.406       .  A
C801        C802   1.393   1_565  A
C801        F808   1.357       .  S
C802        C803   1.402       .  A
C802        H807   1.083       .  S
C803        C804   1.407       .  A
C804        F805   1.358       .  S
C809        C810   1.406       .  A
C809        C814   1.403       .  A
C809        H816   1.083       .  S
C810        C811   1.408       .  A
C811        C812   1.402       .  A
C811        F818   1.357       .  S
C812        C813   1.406       .  A
C812        H817   1.083       .  S
C813        C814   1.410       .  A
C814        F815   1.358       .  S
C819        C820   1.405       .  A
C819        C824   1.393       .  A
C819        H826   1.083       .  S
C820        C821   1.409       .  A
C821        C822   1.406       .  A
C821        F828   1.357       .  S
C822        C823   1.406       .  A
C822        H827   1.083       .  S
C823        C824   1.404       .  A
C824        F825   1.358       .  S
C829        C830   1.405       .  A
C829        C834   1.400       .  A
C829        H836   1.083       .  S
C830        C831   1.409       .  A
C831        C832   1.403       .  A
C831        F838   1.357       .  S
C832        C833   1.404       .  A
C832        H837   1.083       .  S
C833        C834   1.406       .  A
C834        F835   1.358       .  S
C839        C840   1.408       .  A
C839        C844   1.407       .  A
C839        H846   1.083       .  S
C840        C841   1.410       .  A
C841        C842   1.401       .  A
C841        F848   1.358       .  S
C842        C843   1.404       .  A
C842        H847   1.083       .  S
C843        C844   1.409       .  A
C844        F845   1.357       .  S
C849        C850   1.406       .  A
C849        C854   1.403       .  A
C849        H856   1.083       .  S
C850        C851   1.404       .  A
C851        C852   1.399       .  A
C851        F858   1.358       .  S
C852        C853   1.406       .  A
C852        H857   1.083       .  S
C853        C854   1.406       .  A
C854        F855   1.357       .  S
C859        C860   1.404       .  A
C859        C864   1.394       .  A
C859        H866   1.083       .  S
C860        C861   1.407       .  A
C861        C862   1.396       .  A
C861        F868   1.358       .  S
C862        C863   1.404       .  A
C862        H867   1.083       .  S
C863        C864   1.406       .  A
C864        F865   1.357       .  S
C869        C870   1.402       .  A
C869        C874   1.395   1_545  A
C869        H876   1.083       .  S
C870        C871   1.407       .  A
C871        C872   1.392   1_545  A
C871        F878   1.358       .  S
C872        C873   1.402       .  A
C872        H877   1.083       .  S
C873        C874   1.407       .  A
C874        F875   1.358       .  S
C879        C880   1.407       .  A
C879        C884   1.415       .  A
C879        H886   1.083       .  S
C880        C881   1.401       .  A
C881        C882   1.393       .  A
C881        F888   1.358       .  S
C882        C883   1.418       .  A
C882        H887   1.082       .  S
C883        C884   1.421       .  A
C884        F885   1.354       .  S
C889        C890   1.407       .  A
C889        C894   1.403   1_545  A
C889        H896   1.083       .  S
C890        C891   1.409       .  A
C891        C892   1.403   1_545  A
C891        F898   1.358       .  S
C892        C893   1.407       .  A
C892        H897   1.083       .  S
C893        C894   1.408       .  A
C894        F895   1.357       .  S
C899        C900   1.405       .  A
C899        C904   1.401       .  A
C899        H906   1.083       .  S
C900        C901   1.404       .  A
C901        C902   1.401       .  A
C901        F908   1.358       .  S
C902        C903   1.406       .  A
C902        H907   1.083       .  S
C903        C904   1.405       .  A
C904        F905   1.358       .  S
C909        C910   1.399       .  A
C909        C914   1.398       .  A
C909        H916   1.084       .  S
C910        C911   1.400       .  A
C911        C912   1.403       .  A
C911        F918   1.357       .  S
C912        C913   1.421       .  A
C912        H917   1.078       .  S
C913        C914   1.422       .  A
C914        F915   1.354       .  S
C919        C920   1.405       .  A
C919        C924   1.400   1_545  A
C919        H926   1.083       .  S
C920        C921   1.408       .  A
C921        C922   1.405   1_545  A
C921        F928   1.357       .  S
C922        C923   1.406       .  A
C922        H927   1.083       .  S
C923        C924   1.409       .  A
C924        F925   1.358       .  S
C929        C930   1.403       .  A
C929        C934   1.393       .  A
C929        H936   1.083       .  S
C930        C931   1.407       .  A
C931        C932   1.392       .  A
C931        F938   1.358       .  S
C932        C933   1.402       .  A
C932        H937   1.083       .  S
C933        C934   1.406       .  A
C934        F935   1.357       .  S
C939        C940   1.406       .  A
C939        C944   1.402       .  A
C939        H946   1.083       .  S
C940        C941   1.407       .  A
C941        C942   1.400       .  A
C941        F948   1.357       .  S
C942        C943   1.405       .  A
C942        H947   1.083       .  S
C943        C944   1.406       .  A
C944        F945   1.358       .  S
C949        C950   1.403       .  A
C949        C954   1.394   1_565  A
C949        H956   1.083       .  S
C950        C951   1.406       .  A
C951        C952   1.395   1_565  A
C951        F958   1.358       .  S
C952        C953   1.404       .  A
C952        H957   1.083       .  S
C953        C954   1.406       .  A
C954        F955   1.357       .  S
C959        C960   1.404       .  A
C959        C964   1.400       .  A
C959        H966   1.083       .  S
C960        C961   1.409       .  A
C961        C962   1.408       .  A
C961        F968   1.357       .  S
C962        C963   1.409       .  A
C962        H967   1.083       .  S
C963        C964   1.410       .  A
C964        F965   1.357       .  S
C969        C970   1.403       .  A
C969        C974   1.404       .  A
C969        H976   1.083       .  S
C970        C971   1.404       .  A
C971        C972   1.406       .  A
C971        F978   1.357       .  S
C972        C973   1.423       .  A
C972        H977   1.081       .  S
C973        C974   1.421       .  A
C974        F975   1.352       .  S
C979        C980   1.407       .  A
C979        C984   1.406       .  A
C979        H986   1.083       .  S
C980        C981   1.410       .  A
C981        C982   1.394       .  A
C981        F988   1.358       .  S
C982        C983   1.401       .  A
C982        H987   1.084       .  S
C983        C984   1.406       .  A
C984        F985   1.357       .  S
C989        C990   1.406       .  A
C989        C994   1.405       .  A
C989        H996   1.083       .  S
C990        C991   1.411       .  A
C991        C992   1.405       .  A
C991        F998   1.357       .  S
C992        C993   1.405       .  A
C992        H997   1.083       .  S
C993        C994   1.411       .  A
C994        F995   1.358       .  S
C999       C1000   1.403       .  A
C999       C1004   1.400       .  A
C999       H1006   1.084       .  S
C1000      C1001   1.403       .  A
C1001      C1002   1.402       .  A
C1001      F1008   1.358       .  S
C1002      C1003   1.409       .  A
C1002      H1007   1.083       .  S
C1003      C1004   1.407       .  A
C1004      F1005   1.357       .  S
C1009      C1010   1.404       .  A
C1009      C1014   1.395       .  A
C1009      H1016   1.083       .  S
C1010      C1011   1.406       .  A
C1011      C1012   1.394       .  A
C1011      F1018   1.358       .  S
C1012      C1013   1.404       .  A
C1012      H1017   1.083       .  S
C1013      C1014   1.407       .  A
C1014      F1015   1.357       .  S
C1019      C1020   1.400       .  A
C1019      C1024   1.391       .  A
C1019      H1026   1.083       .  S
C1020      C1021   1.410       .  A
C1021      C1022   1.412       .  A
C1021      F1028   1.357       .  S
C1022      C1023   1.416       .  A
C1022      H1027   1.080       .  S
C1023      C1024   1.418       .  A
C1024      F1025   1.356       .  S
C1029      C1030   1.403       .  A
C1029      C1034   1.390   1_655  A
C1029      H1036   1.083       .  S
C1030      C1031   1.405       .  A
C1031      C1032   1.395   1_655  A
C1031      F1038   1.357       .  S
C1032      C1033   1.404       .  A
C1032      H1037   1.083       .  S
C1033      C1034   1.406       .  A
C1034      F1035   1.358       .  S
C1039      C1040   1.406       .  A
C1039      C1044   1.406       .  A
C1039      H1046   1.083       .  S
C1040      C1041   1.408       .  A
C1041      C1042   1.402       .  A
C1041      F1048   1.357       .  S
C1042      C1043   1.406   1_455  A
C1042      H1047   1.083   1_455  S
C1043      C1044   1.412   1_655  A
C1044      F1045   1.357   1_455  S
C1049      C1050   1.402       .  A
C1049      C1054   1.393       .  A
C1049      H1056   1.084       .  S
C1050      C1051   1.408       .  A
C1051      C1052   1.408       .  A
C1051      F1058   1.357       .  S
C1052      C1053   1.408       .  A
C1052      H1057   1.083       .  S
C1053      C1054   1.408       .  A
C1054      F1055   1.358       .  S
C1059      C1060   1.405       .  A
C1059      C1064   1.402       .  A
C1059      H1066   1.083       .  S
C1060      C1061   1.412       .  A
C1061      C1062   1.405   1_455  A
C1061      F1068   1.358       .  S
C1062      C1063   1.406       .  A
C1062      H1067   1.083       .  S
C1063      C1064   1.407   1_655  A
C1064      F1065   1.357   1_455  S
C1069      C1070   1.404       .  A
C1069      C1074   1.394       .  A
C1069      H1076   1.083       .  S
C1070      C1071   1.405       .  A
C1071      C1072   1.392       .  A
C1071      F1078   1.358       .  S
C1072      C1073   1.403       .  A
C1072      H1077   1.083       .  S
C1073      C1074   1.406       .  A
C1074      F1075   1.358       .  S
C1079      C1080   1.407       .  A
C1079      C1084   1.407       .  A
C1079      H1086   1.083       .  S
C1080      C1081   1.411       .  A
C1081      C1082   1.397       .  A
C1081      F1088   1.358       .  S
C1082      C1083   1.401       .  A
C1082      H1087   1.084       .  S
C1083      C1084   1.408       .  A
C1084      F1085   1.357       .  S
C1089      C1090   1.404       .  A
C1089      C1094   1.395   1_655  A
C1089      H1096   1.083       .  S
C1090      C1091   1.406       .  A
C1091      C1092   1.396   1_655  A
C1091      F1098   1.357       .  S
C1092      C1093   1.404       .  A
C1092      H1097   1.083       .  S
C1093      C1094   1.408       .  A
C1094      F1095   1.358       .  S
C1099      C1100   1.406       .  A
C1099      C1104   1.404       .  A
C1099      H1106   1.083       .  S
C1100      C1101   1.409       .  A
C1101      C1102   1.404       .  A
C1101      F1108   1.358       .  S
C1102      C1103   1.406       .  A
C1102      H1107   1.083       .  S
C1103      C1104   1.410       .  A
C1104      F1105   1.357       .  S
C1109      C1110   1.418       .  A
C1109      C1114   1.407       .  A
C1109      H1116   1.079       .  S
C1110      C1111   1.418       .  A
C1111      C1112   1.400       .  A
C1111      F1118   1.357       .  S
C1112      C1113   1.404       .  A
C1112      H1117   1.083       .  S
C1113      C1114   1.406       .  A
C1114      F1115   1.357       .  S
C1119      C1120   1.415       .  A
C1119      C1124   1.404   1_556  A
C1119      H1126   1.083       .  S
C1120      C1121   1.421       .  A
C1121      C1122   1.402   1_556  A
C1121      F1128   1.355       .  S
C1122      C1123   1.415       .  A
C1122      H1127   1.080       .  S
C1123      C1124   1.416       .  A
C1124      F1125   1.357       .  S
C1129      C1130   1.411       .  A
C1129      C1134   1.397       .  A
C1129      H1136   1.083       .  S
C1130      C1131   1.424       .  A
C1131      C1132   1.403       .  A
C1131      F1138   1.356       .  S
C1132      C1133   1.411       .  A
C1132      H1137   1.080       .  S
C1133      C1134   1.416       .  A
C1134      F1135   1.357       .  S
C1139      C1140   1.421       .  A
C1139      C1144   1.405       .  A
C1139      H1146   1.080       .  S
C1140      C1141   1.415       .  A
C1141      C1142   1.399       .  A
C1141      F1148   1.357       .  S
C1142      C1143   1.405       .  A
C1142      H1147   1.083       .  S
C1143      C1144   1.403       .  A
C1144      F1145   1.357       .  S
C1149      C1150   1.412       .  A
C1149      C1154   1.401       .  A
C1149      H1156   1.083       .  S
C1150      C1151   1.422       .  A
C1151      C1152   1.403       .  A
C1151      F1158   1.355       .  S
C1152      C1153   1.413       .  A
C1152      H1157   1.079       .  S
C1153      C1154   1.418       .  A
C1154      F1155   1.357       .  S
C1159      C1160   1.414       .  A
C1159      C1164   1.395   1_554  A
C1159      H1166   1.083       .  S
C1160      C1161   1.419       .  A
C1161      C1162   1.401   1_554  A
C1161      F1168   1.355       .  S
C1162      C1163   1.415       .  A
C1162      H1167   1.079       .  S
C1163      C1164   1.414       .  A
C1164      F1165   1.357       .  S
C1169      C1170   1.401       .  A
C1169      C1174   1.406       .  A
C1169      H1176   1.083       .  S
C1170      C1171   1.407       .  A
C1171      C1172   1.397       .  A
C1171      F1178   1.358       .  S
C1172      C1173   1.413       .  A
C1172      H1177   1.083       .  S
C1173      C1174   1.426       .  A
C1174      F1175   1.355       .  S
C1179      C1180   1.406   1_455  A
C1179      C1184   1.402       .  A
C1179      H1186   1.083   1_455  S
C1180      C1181   1.410   1_655  A
C1181      C1182   1.404       .  A
C1181      F1188   1.357   1_455  S
C1182      C1183   1.406       .  A
C1182      H1187   1.083       .  S
C1183      C1184   1.409       .  A
C1184      F1185   1.358       .  S
C1189      C1190   1.403       .  A
C1189      C1194   1.393       .  A
C1189      H1196   1.083       .  S
C1190      C1191   1.406       .  A
C1191      C1192   1.394       .  A
C1191      F1198   1.358       .  S
C1192      C1193   1.403       .  A
C1192      H1197   1.083       .  S
C1193      C1194   1.406       .  A
C1194      F1195   1.358       .  S
C1199      C1200   1.403       .  A
C1199      C1204   1.408       .  A
C1199      H1206   1.083       .  S
C1200      C1201   1.406       .  A
C1201      C1202   1.398       .  A
C1201      F1208   1.358       .  S
C1202      C1203   1.414       .  A
C1202      H1207   1.083       .  S
C1203      C1204   1.423       .  A
C1204      F1205   1.355       .  S
C1209      C1210   1.403       .  A
C1209      C1214   1.393       .  A
C1209      H1216   1.083       .  S
C1210      C1211   1.406       .  A
C1211      C1212   1.395       .  A
C1211      F1218   1.358       .  S
C1212      C1213   1.404       .  A
C1212      H1217   1.083       .  S
C1213      C1214   1.407       .  A
C1214      F1215   1.358       .  S
C1219      C1220   1.407       .  A
C1219      C1224   1.403       .  A
C1219      H1226   1.083       .  S
C1220      C1221   1.409       .  A
C1221      C1222   1.402       .  A
C1221      F1228   1.357       .  S
C1222      C1223   1.406   1_455  A
C1222      H1227   1.083   1_455  S
C1223      C1224   1.409   1_655  A
C1224      F1225   1.358   1_455  S
C1229      C1230   1.408       .  A
C1229      C1234   1.409       .  A
C1229      H1236   1.083       .  S
C1230      C1231   1.405       .  A
C1231      C1232   1.388       .  A
C1231      F1238   1.358       .  S
C1232      C1233   1.404       .  A
C1232      H1237   1.083       .  S
C1233      C1234   1.409       .  A
C1234      F1235   1.357       .  S
C1239      C1240   1.403       .  A
C1239      C1244   1.401       .  A
C1239      H1246   1.083       .  S
C1240      C1241   1.405       .  A
C1241      C1242   1.407       .  A
C1241      F1248   1.358       .  S
C1242      C1243   1.420       .  A
C1242      H1247   1.076       .  S
C1243      C1244   1.419       .  A
C1244      F1245   1.357       .  S
C1249      C1250   1.406       .  A
C1249      C1254   1.402       .  A
C1249      H1256   1.083       .  S
C1250      C1251   1.411       .  A
C1251      C1252   1.405       .  A
C1251      F1258   1.357       .  S
C1252      C1253   1.407       .  A
C1252      H1257   1.083       .  S
C1253      C1254   1.409       .  A
C1254      F1255   1.357       .  S
C1259      C1260   1.406       .  A
C1259      C1264   1.409       .  A
C1259      H1266   1.083       .  S
C1260      C1261   1.406       .  A
C1261      C1262   1.392       .  A
C1261      F1268   1.358       .  S
C1262      C1263   1.404       .  A
C1262      H1267   1.083       .  S
C1263      C1264   1.411       .  A
C1264      F1265   1.357       .  S
C1269      C1270   1.403       .  A
C1269      C1274   1.410       .  A
C1269      H1276   1.083       .  S
C1270      C1271   1.406       .  A
C1271      C1272   1.391       .  A
C1271      F1278   1.359       .  S
C1272      C1273   1.415       .  A
C1272      H1277   1.079       .  S
C1273      C1274   1.422       .  A
C1274      F1275   1.357       .  S
C1279      C1280   1.404   1_455  A
C1279      C1284   1.395       .  A
C1279      H1286   1.083   1_455  S
C1280      C1281   1.407   1_655  A
C1281      C1282   1.396       .  A
C1281      F1288   1.357   1_455  S
C1282      C1283   1.404       .  A
C1282      H1287   1.083       .  S
C1283      C1284   1.407       .  A
C1284      F1285   1.358       .  S
C1289      C1290   1.402       .  A
C1289      C1294   1.388       .  A
C1289      H1296   1.083       .  S
C1290      C1291   1.410       .  A
C1291      C1292   1.409       .  A
C1291      F1298   1.357       .  S
C1292      C1293   1.408       .  A
C1292      H1297   1.083       .  S
C1293      C1294   1.407       .  A
C1294      F1295   1.358       .  S
C1299      C1300   1.404       .  A
C1299      C1304   1.395   1_655  A
C1299      H1306   1.083       .  S
C1300      C1301   1.406       .  A
C1301      C1302   1.395   1_655  A
C1301      F1308   1.357       .  S
C1302      C1303   1.404       .  A
C1302      H1307   1.083       .  S
C1303      C1304   1.407       .  A
C1304      F1305   1.358       .  S
C1309      C1310   1.407       .  A
C1309      C1314   1.404       .  A
C1309      H1316   1.083       .  S
C1310      C1311   1.410       .  A
C1311      C1312   1.401       .  A
C1311      F1318   1.358       .  S
C1312      C1313   1.406       .  A
C1312      H1317   1.083       .  S
C1313      C1314   1.409       .  A
C1314      F1315   1.357       .  S
C1319      C1320   1.402       .  A
C1319      C1324   1.391       .  A
C1319      H1326   1.084       .  S
C1320      C1321   1.409       .  A
C1321      C1322   1.408       .  A
C1321      F1328   1.357       .  S
C1322      C1323   1.407       .  A
C1322      H1327   1.083       .  S
C1323      C1324   1.408       .  A
C1324      F1325   1.358       .  S
C1329      C1330   1.403       .  A
C1329      C1334   1.410       .  A
C1329      H1336   1.083       .  S
C1330      C1331   1.407       .  A
C1331      C1332   1.392       .  A
C1331      F1338   1.358       .  S
C1332      C1333   1.412       .  A
C1332      H1337   1.077       .  S
C1333      C1334   1.424       .  A
C1334      F1335   1.358       .  S
C1339      C1340   1.418       .  A
C1339      C1344   1.397       .  A
C1339      H1346   1.076       .  S
C1340      C1341   1.425       .  A
C1341      C1342   1.405       .  A
C1341      F1348   1.356       .  S
C1342      C1343   1.403       .  A
C1342      H1347   1.083       .  S
C1343      C1344   1.400       .  A
C1344      F1345   1.358       .  S
C1349      C1350   1.422       .  A
C1349      C1354   1.402       .  A
C1349      H1356   1.077       .  S
C1350      C1351   1.420       .  A
C1351      C1352   1.405       .  A
C1351      F1358   1.358       .  S
C1352      C1353   1.404       .  A
C1352      H1357   1.083       .  S
C1353      C1354   1.399       .  A
C1354      F1355   1.358       .  S
C1359      C1360   1.408       .  A
C1359      C1364   1.385   1_565  A
C1359      H1366   1.062       .  S
C1360      C1361   1.422       .  A
C1361      C1362   1.417   1_565  A
C1361      F1368   1.357       .  S
C1362      C1363   1.417       .  A
C1362      H1367   1.083       .  S
C1363      C1364   1.412       .  A
C1364      F1365   1.353       .  S
C1369      C1370   1.414       .  A
C1369      C1374   1.400       .  A
C1369      H1376   1.083       .  S
C1370      C1371   1.422       .  A
C1371      C1372   1.409       .  A
C1371      F1378   1.355       .  S
C1372      C1373   1.415       .  A
C1372      H1377   1.079       .  S
C1373      C1374   1.417       .  A
C1374      F1375   1.354       .  S
C1379      C1380   1.423       .  A
C1379      C1384   1.408       .  A
C1379      H1386   1.083       .  S
C1380      C1381   1.418       .  A
C1381      C1382   1.387       .  A
C1381      F1388   1.354       .  S
C1382      C1383   1.400       .  A
C1382      H1387   1.084       .  S
C1383      C1384   1.401       .  A
C1384      F1385   1.357       .  S
C1389      C1390   1.408       .  A
C1389      C1394   1.386   1_545  A
C1389      H1396   1.063       .  S
C1390      C1391   1.426       .  A
C1391      C1392   1.417   1_545  A
C1391      F1398   1.356       .  S
C1392      C1393   1.415       .  A
C1392      H1397   1.083       .  S
C1393      C1394   1.413       .  A
C1394      F1395   1.353       .  S
C1399      C1400   1.410       .  A
C1399      C1404   1.399       .  A
C1399      H1406   1.083       .  S
C1400      C1401   1.424       .  A
C1401      C1402   1.411       .  A
C1401      F1408   1.355       .  S
C1402      C1403   1.412       .  A
C1402      H1407   1.080       .  S
C1403      C1404   1.421       .  A
C1404      F1405   1.355       .  S
C1409      C1410   1.414       .  A
C1409      C1414   1.399       .  A
C1409      H1416   1.083       .  S
C1410      C1411   1.426       .  A
C1411      C1412   1.406       .  A
C1411      F1418   1.354       .  S
C1412      C1413   1.402       .  A
C1412      H1417   1.083       .  S
C1413      C1414   1.407       .  A
C1414      F1415   1.358       .  S
C1419      C1420   1.404       .  A
C1419      C1424   1.400   1_556  A
C1419      H1426   1.083       .  S
C1420      C1421   1.410       .  A
C1421      C1422   1.403   1_556  A
C1421      F1428   1.358       .  S
C1422      C1423   1.406       .  A
C1422      H1427   1.083       .  S
C1423      C1424   1.409       .  A
C1424      F1425   1.357       .  S
C1429      C1430   1.403       .  A
C1429      C1434   1.394       .  A
C1429      H1436   1.083       .  S
C1430      C1431   1.407       .  A
C1431      C1432   1.397       .  A
C1431      F1438   1.358       .  S
C1432      C1433   1.404       .  A
C1432      H1437   1.083       .  S
C1433      C1434   1.406       .  A
C1434      F1435   1.357       .  S
C1439      C1440   1.399       .  A
C1439      C1444   1.403       .  A
C1439      H1446   1.083       .  S
C1440      C1441   1.405       .  A
C1441      C1442   1.392       .  A
C1441      F1448   1.358       .  S
C1442      C1443   1.413       .  A
C1442      H1447   1.083       .  S
C1443      C1444   1.426       .  A
C1444      F1445   1.354       .  S
C1449      C1450   1.403       .  A
C1449      C1454   1.390       .  A
C1449      H1456   1.083       .  S
C1450      C1451   1.407       .  A
C1451      C1452   1.395       .  A
C1451      F1458   1.357       .  S
C1452      C1453   1.403       .  A
C1452      H1457   1.083       .  S
C1453      C1454   1.405       .  A
C1454      F1455   1.358       .  S
C1459      C1460   1.405       .  A
C1459      C1464   1.400   1_554  A
C1459      H1466   1.083       .  S
C1460      C1461   1.410   1_554  A
C1461      C1462   1.402       .  A
C1461      F1468   1.358   1_556  S
C1462      C1463   1.405       .  A
C1462      H1467   1.083       .  S
C1463      C1464   1.408       .  A
C1464      F1465   1.357       .  S
C1469      C1470   1.400       .  A
C1469      C1474   1.404       .  A
C1469      H1476   1.083       .  S
C1470      C1471   1.405       .  A
C1471      C1472   1.392       .  A
C1471      F1478   1.358       .  S
C1472      C1473   1.411       .  A
C1472      H1477   1.083       .  S
C1473      C1474   1.425       .  A
C1474      F1475   1.356       .  S
C1479      C1480   1.404       .  A
C1479      C1484   1.398       .  A
C1479      H1486   1.084       .  S
C1480      C1481   1.403       .  A
C1481      C1482   1.400       .  A
C1481      F1488   1.358       .  S
C1482      C1483   1.406       .  A
C1482      H1487   1.083       .  S
C1483      C1484   1.405       .  A
C1484      F1485   1.358       .  S
C1489      C1490   1.406       .  A
C1489      C1494   1.402       .  A
C1489      H1496   1.083       .  S
C1490      C1491   1.404       .  A
C1491      C1492   1.396       .  A
C1491      F1498   1.358       .  S
C1492      C1493   1.403       .  A
C1492      H1497   1.084       .  S
C1493      C1494   1.404       .  A
C1494      F1495   1.357       .  S
C1499      C1500   1.403       .  A
C1499      C1504   1.400       .  A
C1499      H1506   1.083       .  S
C1500      C1501   1.405       .  A
C1501      C1502   1.405       .  A
C1501      F1508   1.357       .  S
C1502      C1503   1.418       .  A
C1502      H1507   1.079       .  S
C1503      C1504   1.419       .  A
C1504      F1505   1.357       .  S
C1509      C1510   1.402       .  A
C1509      C1514   1.393   1_556  A
C1509      H1516   1.083       .  S
C1510      C1511   1.407       .  A
C1511      C1512   1.394   1_556  A
C1511      F1518   1.358       .  S
C1512      C1513   1.403       .  A
C1512      H1517   1.083       .  S
C1513      C1514   1.406       .  A
C1514      F1515   1.358       .  S
C1519      C1520   1.407       .  A
C1519      C1524   1.404       .  A
C1519      H1526   1.083       .  S
C1520      C1521   1.408       .  A
C1521      C1522   1.400       .  A
C1521      F1528   1.358       .  S
C1522      C1523   1.406       .  A
C1522      H1527   1.083       .  S
C1523      C1524   1.408       .  A
C1524      F1525   1.357       .  S
C1529      C1530   1.403       .  A
C1529      C1534   1.389       .  A
C1529      H1536   1.083       .  S
C1530      C1531   1.409       .  A
C1531      C1532   1.407       .  A
C1531      F1538   1.357       .  S
C1532      C1533   1.405       .  A
C1532      H1537   1.083       .  S
C1533      C1534   1.403       .  A
C1534      F1535   1.358       .  S
C1539      C1540   1.403       .  A
C1539      C1544   1.394   1_556  A
C1539      H1546   1.083       .  S
C1540      C1541   1.405       .  A
C1541      C1542   1.392   1_556  A
C1541      F1548   1.358       .  S
C1542      C1543   1.402       .  A
C1542      H1547   1.083       .  S
C1543      C1544   1.407       .  A
C1544      F1545   1.358       .  S
C1549      C1550   1.407       .  A
C1549      C1554   1.406       .  A
C1549      H1556   1.083       .  S
C1550      C1551   1.408       .  A
C1551      C1552   1.397       .  A
C1551      F1558   1.358       .  S
C1552      C1553   1.404       .  A
C1552      H1557   1.084       .  S
C1553      C1554   1.408       .  A
C1554      F1555   1.357       .  S
C1559      C1560   1.405       .  A
C1559      C1564   1.403       .  A
C1559      H1566   1.083       .  S
C1560      C1561   1.407       .  A
C1561      C1562   1.394       .  A
C1561      F1568   1.358       .  S
C1562      C1563   1.403       .  A
C1562      H1567   1.084       .  S
C1563      C1564   1.408       .  A
C1564      F1565   1.357       .  S
C1569      C1570   1.406       .  A
C1569      C1574   1.402       .  A
C1569      H1576   1.083       .  S
C1570      C1571   1.405       .  A
C1571      C1572   1.409       .  A
C1571      F1578   1.357       .  S
C1572      C1573   1.420       .  A
C1572      H1577   1.079       .  S
C1573      C1574   1.417       .  A
C1574      F1575   1.357       .  S
C1579      C1580   1.405       .  A
C1579      C1584   1.405       .  A
C1579      H1586   1.083       .  S
C1580      C1581   1.402       .  A
C1581      C1582   1.392       .  A
C1581      F1588   1.358       .  S
C1582      C1583   1.405       .  A
C1582      H1587   1.083       .  S
C1583      C1584   1.408       .  A
C1584      F1585   1.357       .  S
C1589      C1590   1.408       .  A
C1589      C1594   1.406       .  A
C1589      H1596   1.083       .  S
C1590      C1591   1.411       .  A
C1591      C1592   1.405       .  A
C1591      F1598   1.357       .  S
C1592      C1593   1.407       .  A
C1592      H1597   1.083       .  S
C1593      C1594   1.410       .  A
C1594      F1595   1.357       .  S
C1599      C1600   1.401       .  A
C1599      C1604   1.400       .  A
C1599      H1606   1.084       .  S
C1600      C1601   1.404       .  A
C1601      C1602   1.400       .  A
C1601      F1608   1.357       .  S
C1602      C1603   1.403       .  A
C1602      H1607   1.083       .  S
C1603      C1604   1.410       .  A
C1604      F1605   1.358       .  S
C1609      C1610   1.403       .  A
C1609      C1614   1.395       .  A
C1609      H1616   1.083       .  S
C1610      C1611   1.407       .  A
C1611      C1612   1.393       .  A
C1611      F1618   1.357       .  S
C1612      C1613   1.402       .  A
C1612      H1617   1.083       .  S
C1613      C1614   1.408       .  A
C1614      F1615   1.358       .  S
C1619      C1620   1.421       .  A
C1619      C1624   1.410       .  A
C1619      H1626   1.080       .  S
C1620      C1621   1.416       .  A
C1621      C1622   1.396       .  A
C1621      F1628   1.357       .  S
C1622      C1623   1.403       .  A
C1622      H1627   1.084       .  S
C1623      C1624   1.404       .  A
C1624      F1625   1.357       .  S
C1629      C1630   1.402       .  A
C1629      C1634   1.395   1_556  A
C1629      H1636   1.083       .  S
C1630      C1631   1.406       .  A
C1631      C1632   1.390   1_556  A
C1631      F1638   1.358       .  S
C1632      C1633   1.402       .  A
C1632      H1637   1.083       .  S
C1633      C1634   1.407       .  A
C1634      F1635   1.357       .  S
C1639      C1640   1.400       .  A
C1639      C1644   1.394       .  A
C1639      H1646   1.084       .  S
C1640      C1641   1.403       .  A
C1641      C1642   1.408       .  A
C1641      F1648   1.357       .  S
C1642      C1643   1.422       .  A
C1642      H1647   1.080       .  S
C1643      C1644   1.421       .  A
C1644      F1645   1.351       .  S
C1649      C1650   1.405       .  A
C1649      C1654   1.406   1_554  A
C1649      H1656   1.083       .  S
C1650      C1651   1.407       .  A
C1651      C1652   1.398   1_554  A
C1651      F1658   1.358       .  S
C1652      C1653   1.406       .  A
C1652      H1657   1.083       .  S
C1653      C1654   1.411       .  A
C1654      F1655   1.357       .  S
C1659      C1660   1.401       .  A
C1659      C1664   1.401       .  A
C1659      H1666   1.083       .  S
C1660      C1661   1.406       .  A
C1661      C1662   1.399       .  A
C1661      F1668   1.358       .  S
C1662      C1663   1.403       .  A
C1662      H1667   1.083       .  S
C1663      C1664   1.410       .  A
C1664      F1665   1.358       .  S
C1669      C1670   1.403       .  A
C1669      C1674   1.395   1_556  A
C1669      H1676   1.083       .  S
C1670      C1671   1.407       .  A
C1671      C1672   1.395   1_556  A
C1671      F1678   1.357       .  S
C1672      C1673   1.403       .  A
C1672      H1677   1.083       .  S
C1673      C1674   1.407       .  A
C1674      F1675   1.358       .  S
C1679      C1680   1.407       .  A
C1679      C1684   1.400       .  A
C1679      H1686   1.083       .  S
C1680      C1681   1.410       .  A
C1681      C1682   1.407       .  A
C1681      F1688   1.357       .  S
C1682      C1683   1.407       .  A
C1682      H1687   1.083       .  S
C1683      C1684   1.409       .  A
C1684      F1685   1.358       .  S
C1689      C1690   1.399       .  A
C1689      C1694   1.403       .  A
C1689      H1696   1.083       .  S
C1690      C1691   1.407       .  A
C1691      C1692   1.399       .  A
C1691      F1698   1.358       .  S
C1692      C1693   1.414       .  A
C1692      H1697   1.084       .  S
C1693      C1694   1.426       .  A
C1694      F1695   1.355       .  S
C1699      C1700   1.404       .  A
C1699      C1704   1.405   1_554  A
C1699      H1706   1.083       .  S
C1700      C1701   1.405       .  A
C1701      C1702   1.399   1_554  A
C1701      F1708   1.358       .  S
C1702      C1703   1.406       .  A
C1702      H1707   1.083       .  S
C1703      C1704   1.412       .  A
C1704      F1705   1.357       .  S
C1709      C1710   1.403       .  A
C1709      C1714   1.398       .  A
C1709      H1716   1.083       .  S
C1710      C1711   1.408       .  A
C1711      C1712   1.403       .  A
C1711      F1718   1.357       .  S
C1712      C1713   1.403       .  A
C1712      H1717   1.083       .  S
C1713      C1714   1.407       .  A
C1714      F1715   1.358       .  S
C1719      C1720   1.403       .  A
C1719      C1724   1.393       .  A
C1719      H1726   1.083       .  S
C1720      C1721   1.406       .  A
C1721      C1722   1.395       .  A
C1721      F1728   1.358       .  S
C1722      C1723   1.404       .  A
C1722      H1727   1.083       .  S
C1723      C1724   1.406       .  A
C1724      F1725   1.357       .  S
C1729      C1730   1.419       .  A
C1729      C1734   1.408       .  A
C1729      H1736   1.081       .  S
C1730      C1731   1.419       .  A
C1731      C1732   1.397       .  A
C1731      F1738   1.357       .  S
C1732      C1733   1.404       .  A
C1732      H1737   1.083       .  S
C1733      C1734   1.405       .  A
C1734      F1735   1.357       .  S
C1739      C1740   1.419       .  A
C1739      C1744   1.399       .  A
C1739      H1746   1.084       .  S
C1740      C1741   1.429       .  A
C1741      C1742   1.406       .  A
C1741      F1748   1.355       .  S
C1742      C1743   1.400       .  A
C1742      H1747   1.083       .  S
C1743      C1744   1.405       .  A
C1744      F1745   1.357       .  S
C1749      C1750   1.418       .  A
C1749      C1754   1.408       .  A
C1749      H1756   1.083       .  S
C1750      C1751   1.419       .  A
C1751      C1752   1.392       .  A
C1751      F1758   1.357       .  S
C1752      C1753   1.403       .  A
C1752      H1757   1.083       .  S
C1753      C1754   1.404       .  A
C1754      F1755   1.356       .  S
C1759      C1760   1.414       .  A
C1759      C1764   1.391       .  A
C1759      H1766   1.081       .  S
C1760      C1761   1.421       .  A
C1761      C1762   1.413       .  A
C1761      F1768   1.356       .  S
C1762      C1763   1.406       .  A
C1762      H1767   1.083       .  S
C1763      C1764   1.407       .  A
C1764      F1765   1.358       .  S
C1769      C1770   1.407       .  A
C1769      C1774   1.405       .  A
C1769      H1776   1.077       .  S
C1770      C1771   1.415       .  A
C1771      C1772   1.398       .  A
C1771      F1778   1.358       .  S
C1772      C1773   1.413       .  A
C1772      H1777   1.072       .  S
C1773      C1774   1.431       .  A
C1774      F1775   1.354       .  S
C1779      C1780   1.405       .  A
C1779      C1784   1.411       .  A
C1779      H1786   1.083       .  S
C1780      C1781   1.409       .  A
C1781      C1782   1.398       .  A
C1781      F1788   1.358       .  S
C1782      C1783   1.414       .  A
C1782      H1787   1.082       .  S
C1783      C1784   1.422       .  A
C1784      F1785   1.356       .  S
C1789      C1790   1.423       .  A
C1789      C1794   1.405       .  A
C1789      H1796   1.079       .  S
C1790      C1791   1.422       .  A
C1791      C1792   1.402       .  A
C1791      F1798   1.359       .  S
C1792      C1793   1.405       .  A
C1792      H1797   1.083       .  S
C1793      C1794   1.403       .  A
C1794      F1795   1.357       .  S
C1799      C1800   1.415       .  A
C1799      C1804   1.404   1_655  A
C1799      H1806   1.075       .  S
C1800      C1801   1.424       .  A
C1801      C1802   1.409   1_655  A
C1801      F1808   1.356       .  S
C1802      C1803   1.416       .  A
C1802      H1807   1.078       .  S
C1803      C1804   1.419       .  A
C1804      F1805   1.356       .  S
C1809      C1810   1.408       .  A
C1809      C1814   1.417       .  A
C1809      H1816   1.083       .  S
C1810      C1811   1.408       .  A
C1811      C1812   1.389       .  A
C1811      F1818   1.358       .  S
C1812      C1813   1.412       .  A
C1812      H1817   1.080       .  S
C1813      C1814   1.422       .  A
C1814      F1815   1.357       .  S
C1819      C1820   1.414       .  A
C1819      C1824   1.394       .  A
C1819      H1826   1.081       .  S
C1820      C1821   1.421       .  A
C1821      C1822   1.411       .  A
C1821      F1828   1.356       .  S
C1822      C1823   1.404       .  A
C1822      H1827   1.083       .  S
C1823      C1824   1.408       .  A
C1824      F1825   1.358       .  S
C1829      C1830   1.412       .  A
C1829      C1834   1.388   1_455  A
C1829      H1836   1.084       .  S
C1830      C1831   1.420       .  A
C1831      C1832   1.409   1_455  A
C1831      F1838   1.354       .  S
C1832      C1833   1.415       .  A
C1832      H1837   1.079       .  S
C1833      C1834   1.414       .  A
C1834      F1835   1.358       .  S
C1839      C1840   1.410       .  A
C1839      C1844   1.409       .  A
C1839      H1846   1.078       .  S
C1840      C1841   1.413       .  A
C1841      C1842   1.391       .  A
C1841      F1848   1.358       .  S
C1842      C1843   1.411       .  A
C1842      H1847   1.067       .  S
C1843      C1844   1.431       .  A
C1844      F1845   1.353       .  S
C1849      C1850   1.412       .  A
C1849      C1854   1.393       .  A
C1849      H1856   1.081       .  S
C1850      C1851   1.421       .  A
C1851      C1852   1.410       .  A
C1851      F1858   1.357       .  S
C1852      C1853   1.404       .  A
C1852      H1857   1.083       .  S
C1853      C1854   1.409       .  A
C1854      F1855   1.358       .  S
C1859      C1860   1.412       .  A
C1859      C1864   1.391       .  A
C1859      H1866   1.080       .  S
C1860      C1861   1.423       .  A
C1861      C1862   1.413       .  A
C1861      F1868   1.357       .  S
C1862      C1863   1.405       .  A
C1862      H1867   1.083       .  S
C1863      C1864   1.408       .  A
C1864      F1865   1.358       .  S
C1869      C1870   1.420       .  A
C1869      C1874   1.406       .  A
C1869      H1876   1.082       .  S
C1870      C1871   1.416       .  A
C1871      C1872   1.396       .  A
C1871      F1878   1.357       .  S
C1872      C1873   1.405       .  A
C1872      H1877   1.083       .  S
C1873      C1874   1.403       .  A
C1874      F1875   1.357       .  S
C1879      C1880   1.423       .  A
C1879      C1884   1.406       .  A
C1879      H1886   1.079       .  S
C1880      C1881   1.422       .  A
C1881      C1882   1.397       .  A
C1881      F1888   1.359       .  S
C1882      C1883   1.402       .  A
C1882      H1887   1.084       .  S
C1883      C1884   1.402       .  A
C1884      F1885   1.357       .  S
C1889      C1890   1.419       .  A
C1889      C1894   1.411       .  A
C1889      H1896   1.083       .  S
C1890      C1891   1.420       .  A
C1891      C1892   1.396       .  A
C1891      F1898   1.356       .  S
C1892      C1893   1.404       .  A
C1892      H1897   1.083       .  S
C1893      C1894   1.406       .  A
C1894      F1895   1.357       .  S
C1899      C1900   1.406       .  A
C1899      C1904   1.414       .  A
C1899      H1906   1.083       .  S
C1900      C1901   1.409       .  A
C1901      C1902   1.393       .  A
C1901      F1908   1.358       .  S
C1902      C1903   1.413       .  A
C1902      H1907   1.081       .  S
C1903      C1904   1.423       .  A
C1904      F1905   1.356       .  S
C1909      C1910   1.409       .  A
C1909      C1914   1.407       .  A
C1909      H1916   1.077       .  S
C1910      C1911   1.412       .  A
C1911      C1912   1.396       .  A
C1911      F1918   1.357       .  S
C1912      C1913   1.412       .  A
C1912      H1917   1.066       .  S
C1913      C1914   1.430       .  A
C1914      F1915   1.353       .  S
C1919      C1920   1.411       .  A
C1919      C1924   1.389   1_554  A
C1919      H1926   1.083       .  S
C1920      C1921   1.422       .  A
C1921      C1922   1.409   1_554  A
C1921      F1928   1.354       .  S
C1922      C1923   1.414       .  A
C1922      H1927   1.080       .  S
C1923      C1924   1.415       .  A
C1924      F1925   1.358       .  S
C1929      C1930   1.412       .  A
C1929      C1934   1.394       .  A
C1929      H1936   1.082       .  S
C1930      C1931   1.423       .  A
C1931      C1932   1.408       .  A
C1931      F1938   1.356       .  S
C1932      C1933   1.403       .  A
C1932      H1937   1.083       .  S
C1933      C1934   1.409       .  A
C1934      F1935   1.358       .  S
C1939      C1940   1.420       .  A
C1939      C1944   1.400       .  A
C1939      H1946   1.084       .  S
C1940      C1941   1.425       .  A
C1941      C1942   1.404       .  A
C1941      F1948   1.354       .  S
C1942      C1943   1.400       .  A
C1942      H1947   1.083       .  S
C1943      C1944   1.406       .  A
C1944      F1945   1.358       .  S
C1949      C1950   1.411       .  A
C1949      C1954   1.399   1_556  A
C1949      H1956   1.077       .  S
C1950      C1951   1.423       .  A
C1951      C1952   1.405   1_556  A
C1951      F1958   1.356       .  S
C1952      C1953   1.417       .  A
C1952      H1957   1.079       .  S
C1953      C1954   1.418       .  A
C1954      F1955   1.354       .  S
C1959      C1960   1.414       .  A
C1959      C1964   1.395       .  A
C1959      H1966   1.073       .  S
C1960      C1961   1.430       .  A
C1961      C1962   1.405       .  A
C1961      F1968   1.354       .  S
C1962      C1963   1.408       .  A
C1962      H1967   1.077       .  S
C1963      C1964   1.414       .  A
C1964      F1965   1.358       .  S
C1969      C1970   1.420       .  A
C1969      C1974   1.410       .  A
C1969      H1976   1.083       .  S
C1970      C1971   1.421       .  A
C1971      C1972   1.393       .  A
C1971      F1978   1.355       .  S
C1972      C1973   1.402       .  A
C1972      H1977   1.084       .  S
C1973      C1974   1.405       .  A
C1974      F1975   1.357       .  S
C1979      C1980   1.422       .  A
C1979      C1984   1.406       .  A
C1979      H1986   1.079       .  S
C1980      C1981   1.418       .  A
C1981      C1982   1.398       .  A
C1981      F1988   1.356       .  S
C1982      C1983   1.404       .  A
C1982      H1987   1.083       .  S
C1983      C1984   1.403       .  A
C1984      F1985   1.357       .  S
C1989      C1990   1.406       .  A
C1989      C1994   1.398       .  A
C1989      H1996   1.083       .  S
C1990      C1991   1.404       .  A
C1991      C1992   1.406       .  A
C1991      F1998   1.357       .  S
C1992      C1993   1.420       .  A
C1992      H1997   1.081       .  S
C1993      C1994   1.417       .  A
C1994      F1995   1.358       .  S
C1999      C2000   1.419       .  A
C1999      C2004   1.403       .  A
C1999      H2006   1.083       .  S
C2000      C2001   1.434       .  A
C2001      C2002   1.407       .  A
C2001      F2008   1.354       .  S
C2002      C2003   1.399       .  A
C2002      H2007   1.083       .  S
C2003      C2004   1.406       .  A
C2004      F2005   1.357       .  S
C2009      C2010   1.425       .  A
C2009      C2014   1.414   1_545  A
C2009      H2016   1.079       .  S
C2010      C2011   1.418       .  A
C2011      C2012   1.395   1_545  A
C2011      F2018   1.346       .  S
C2012      C2013   1.409       .  A
C2012      H2017   1.080       .  S
C2013      C2014   1.414       .  A
C2014      F2015   1.355       .  S
C2019      C2020   1.414       .  A
C2019      C2024   1.395       .  A
C2019      H2026   1.076       .  S
C2020      C2021   1.422       .  A
C2021      C2022   1.409       .  A
C2021      F2028   1.357       .  S
C2022      C2023   1.403       .  A
C2022      H2027   1.083       .  S
C2023      C2024   1.406       .  A
C2024      F2025   1.358       .  S
C2029      C2030   1.413       .  A
C2029      C2034   1.395       .  A
C2029      H2036   1.081       .  S
C2030      C2031   1.425       .  A
C2031      C2032   1.409       .  A
C2031      F2038   1.355       .  S
C2032      C2033   1.403       .  A
C2032      H2037   1.083       .  S
C2033      C2034   1.406       .  A
C2034      F2035   1.358       .  S
C2039      C2040   1.414       .  A
C2039      C2044   1.410       .  A
C2039      H2046   1.083       .  S
C2040      C2041   1.419       .  A
C2041      C2042   1.386       .  A
C2041      F2048   1.356       .  S
C2042      C2043   1.410       .  A
C2042      H2047   1.081       .  S
C2043      C2044   1.418       .  A
C2044      F2045   1.357       .  S
C2049      C2050   1.412       .  A
C2049      C2054   1.397       .  A
C2049      H2056   1.083       .  S
C2050      C2051   1.426       .  A
C2051      C2052   1.405       .  A
C2051      F2058   1.356       .  S
C2052      C2053   1.401       .  A
C2052      H2057   1.083       .  S
C2053      C2054   1.408       .  A
C2054      F2055   1.357       .  S
C2059      C2060   1.420       .  A
C2059      C2064   1.404       .  A
C2059      H2066   1.079       .  S
C2060      C2061   1.421       .  A
C2061      C2062   1.398       .  A
C2061      F2068   1.358       .  S
C2062      C2063   1.402       .  A
C2062      H2067   1.083       .  S
C2063      C2064   1.404       .  A
C2064      F2065   1.357       .  S
C2069      C2070   1.412       .  A
C2069      C2074   1.396   1_545  A
C2069      H2076   1.070       .  S
C2070      C2071   1.429       .  A
C2071      C2072   1.405   1_545  A
C2071      F2078   1.357       .  S
C2072      C2073   1.409       .  A
C2072      H2077   1.081       .  S
C2073      C2074   1.415       .  A
C2074      F2075   1.356       .  S
C2079      C2080   1.412       .  A
C2079      C2084   1.405       .  A
C2079      H2086   1.079       .  S
C2080      C2081   1.427       .  A
C2081      C2082   1.410       .  A
C2081      F2088   1.354       .  S
C2082      C2083   1.418       .  A
C2082      H2087   1.075       .  S
C2083      C2084   1.424       .  A
C2084      F2085   1.354       .  S
