geometry optimzed in LAMMPS
_audit_creation_date              2020-11-30 
_audit_creation_method            'lammps2cif' 
_symmetry_space_group_name_H-M    'P1' 
_symmetry_Int_Tables_number       1 
_symmetry_cell_setting            triclinic 
loop_ 
_symmetry_equiv_pos_as_xyz 
  x,y,z 
_cell_length_a                    29.80145296 
_cell_length_b                    29.8051668520496 
_cell_length_c                    46.21021722067596 
_cell_angle_alpha                 89.80934142376148 
_cell_angle_beta                  90.2715594912751 
_cell_angle_gamma                 89.9462358597924 
loop_ 
_atom_site_label 
_atom_site_type_symbol 
_atom_site_fract_x 
_atom_site_fract_y 
_atom_site_fract_z 
_atom_site_charge 
N1          N  0.49196446  0.00019098  0.45411542    -0.36400
N2          N  0.48507001  0.93014499  0.99766468    -0.57000
N3          N  0.48564794  0.99845690  0.04260294    -0.36400
N4          N  0.49667453  0.06828606  0.99918028    -0.57000
C5          C  0.50013814  0.96339711  0.43786548     0.27200
C6          C  0.50535593  0.03626530  0.43858677     0.27200
C7          C  0.48962241  0.96076068  0.05887460     0.27100
C8          C  0.49588133  0.03377086  0.05981945     0.27100
C9          C  0.47872946  0.90490422  0.47377005     0.35800
C10         C  0.47454770  0.90388998  0.02051701     0.35800
C11         C  0.49364951  0.09543727  0.47575581     0.35800
C12         C  0.49102335  0.09465708  0.02263920     0.35800
C13         C  0.51856646  0.97629160  0.41162871    -0.21700
C14         C  0.52191890  0.02226491  0.41209810    -0.21700
C15         C  0.50208171  0.97231311  0.08681650    -0.21700
C16         C  0.50542204  0.01820934  0.08751978    -0.21700
C17         C  0.46429315  0.86233819  0.48143460    -0.22800
C18         C  0.46154354  0.86171930  0.01108816    -0.22800
C19         C  0.48638715  0.13932662  0.48433863    -0.22800
C20         C  0.48518449  0.13892827  0.01402070    -0.22800
C21         C  0.48901271  0.91872781  0.44533740    -0.18100
C22         C  0.50055822  0.08166164  0.44687215    -0.18100
C23         C  0.49410723  0.07975734  0.05171930    -0.18100
C24         C  0.47981811  0.91637384  0.04981626    -0.18100
H25         H  0.52829235  0.95483205  0.39387517     0.14800
H26         H  0.53483117  0.04306199  0.39479350     0.14800
H27         H  0.50748035  0.95008408  0.10506899     0.14800
H28         H  0.51340049  0.03765505  0.10655963     0.14800
H29         H  0.45713121  0.83447045  0.46718342     0.13100
H30         H  0.45177264  0.83325960  0.02421976     0.13100
H31         H  0.48320475  0.16874567  0.47068918     0.13100
H32         H  0.48104248  0.16812985  0.02758424     0.13100
H33         H  0.47345244  0.00111164  0.47309075     0.26300
H34         H  0.47190499  0.00030953  0.02197305     0.26300
C35         C  0.51407334  0.28985697  0.27558117     0.03300
C36         C  0.50932694  0.26671416  0.24939483    -0.12800
C37         C  0.50403360  0.28942230  0.22293709     0.00800
C38         C  0.50229415  0.33666649  0.22309211    -0.11400
C39         C  0.50667451  0.36075796  0.24920756     0.03300
C40         C  0.51284019  0.33695267  0.27527977    -0.10800
H41         H  0.50943037  0.23043460  0.24967975     0.08900
H42         H  0.49651850  0.35463360  0.20302193     0.06400
H43         H  0.51669141  0.35504074  0.29542814     0.06300
C44         C  0.50097189  0.70991687  0.27508040     0.03300
C45         C  0.50118074  0.66278091  0.27535696    -0.12800
C46         C  0.49887480  0.63843575  0.24932255     0.00800
C47         C  0.49674282  0.66213999  0.22284558    -0.11400
C48         C  0.49571300  0.70934627  0.22235222     0.03300
C49         C  0.49719471  0.73265691  0.24862324    -0.10800
H50         H  0.50361809  0.64520798  0.29586532     0.08900
H51         H  0.49633127  0.64396034  0.20259728     0.06400
H52         H  0.49494211  0.76895485  0.24851804     0.06300
N53         N  0.00452905  0.49334630  0.45662679    -0.36400
N54         N  0.93464403  0.50876410  0.99958910    -0.57000
N55         N  0.00119725  0.49765145  0.04554162    -0.36400
N56         N  0.07187468  0.48764297  0.00244670    -0.57000
C57         C  0.96995084  0.50515201  0.43904765     0.27200
C58         C  0.04253375  0.49481653  0.44067133     0.27200
C59         C  0.96541048  0.51051531  0.06148233     0.27100
C60         C  0.03796754  0.50035014  0.06278611     0.27100
C61         C  0.90839159  0.50681008  0.47566171     0.35800
C62         C  0.90661904  0.50962717  0.02253083     0.35800
C63         C  0.09820299  0.47704912  0.47973754     0.35800
C64         C  0.09648148  0.47960712  0.02655172     0.35800
C65         C  0.98609618  0.51356433  0.41146328    -0.21700
C66         C  0.03183698  0.50734367  0.41252803    -0.21700
C67         C  0.97959714  0.52006532  0.08943857    -0.21700
C68         C  0.02523399  0.51449275  0.09010375    -0.21700
C69         C  0.86353743  0.50759762  0.48340848    -0.22800
C70         C  0.86240300  0.50961079  0.01301243    -0.22800
C71         C  0.13981095  0.46241038  0.48947768    -0.22800
C72         C  0.13871782  0.46403919  0.01912137    -0.22800
C73         C  0.92397371  0.50642639  0.44678192    -0.18100
C74         C  0.08627483  0.48278224  0.45029467    -0.18100
C75         C  0.08254245  0.48883124  0.05512829    -0.18100
C76         C  0.92006397  0.51219290  0.05194678    -0.18100
H77         H  0.96694079  0.52309413  0.39245787     0.14800
H78         H  0.05455431  0.51112391  0.39448121     0.14800
H79         H  0.95948107  0.52994892  0.10773063     0.14800
H80         H  0.04644624  0.51986819  0.10883861     0.14800
H81         H  0.83455570  0.50726009  0.46920747     0.13100
H82         H  0.83228922  0.51126382  0.02594750     0.13100
H83         H  0.16818605  0.45201193  0.47658840     0.13100
H84         H  0.16606637  0.45518149  0.03354643     0.13100
H85         H  0.00163917  0.48008681  0.47725847     0.26300
H86         H  0.99995637  0.48360238  0.02511873     0.26300
C87         C  0.29276076  0.48668105  0.27940611     0.03300
C88         C  0.26852579  0.48915115  0.25343485    -0.12800
C89         C  0.29038658  0.49563677  0.22698058     0.00800
C90         C  0.33745086  0.49792922  0.22649483    -0.11400
C91         C  0.36265870  0.49439478  0.25224888     0.03300
C92         C  0.33986093  0.48886045  0.27875086    -0.10800
H93         H  0.23228097  0.48618142  0.25391087     0.08900
H94         H  0.35431942  0.50288236  0.20601633     0.06400
H95         H  0.35850443  0.48689603  0.29889770     0.06300
C96         C  0.71116298  0.51246020  0.27565168     0.03300
C97         C  0.66437558  0.50654196  0.27543722    -0.12800
C98         C  0.64024326  0.50518867  0.24909627     0.00800
C99         C  0.66397307  0.50711978  0.22281188    -0.11400
C100        C  0.71078276  0.51323462  0.22265095     0.03300
C101        C  0.73346890  0.51746607  0.24918269    -0.10800
H102        H  0.64686025  0.50235505  0.29573573     0.08900
H103        H  0.64607173  0.50327441  0.20253902     0.06400
H104        H  0.76927103  0.52378397  0.24927292     0.06300
O105        O  0.50288531  0.43225481  0.22554565    -0.72800
O106        O  0.49863117  0.56700532  0.22584796    -0.73800
O107        O  0.56844082  0.50177592  0.22529637    -0.62400
O108        O  0.43290182  0.49749042  0.22705075    -0.70800
O109        O  0.43493818  0.49739067  0.27498481    -0.70300
O110        O  0.56960313  0.50114597  0.27323996    -0.61600
O111        O  0.50065277  0.56715046  0.27377918    -0.74100
O112        O  0.50437986  0.43172392  0.27349019    -0.72900
Cu113      Cu  0.50060286  0.49964627  0.22427651     1.04600
Cu114      Cu  0.50240532  0.49933572  0.27552025     1.04300
C115        C  0.50451206  0.41056820  0.24942067     0.93400
C116        C  0.49936006  0.58853865  0.24970834     0.92600
C117        C  0.59045605  0.50224566  0.24915823     0.84700
C118        C  0.41248263  0.49660898  0.25137551     0.91000
C119        C  0.26366874  0.49868237  0.19985261    -0.19700
C120        C  0.22554552  0.52684423  0.19777864     0.36500
C121        C  0.19791015  0.52448493  0.17313280    -0.25700
C122        C  0.20850342  0.49570898  0.15027791     0.03000
C123        C  0.24813813  0.47003573  0.15133011     0.27800
C124        C  0.27522239  0.47147117  0.17626842    -0.24800
N125        N  0.21521440  0.55775100  0.22063827    -0.82200
H126        H  0.16788766  0.54494988  0.17173219     0.13600
C127        C  0.17736470  0.49240163  0.12548774     0.02900
N128        N  0.26078065  0.44293594  0.12700447    -0.80700
H129        H  0.30476836  0.45035149  0.17763349     0.18400
C130        C  0.18095587  0.52327423  0.10272614    -0.25600
C131        C  0.15069545  0.52225783  0.07935383     0.36400
C132        C  0.11710595  0.48892678  0.07852167    -0.19600
C133        C  0.11408943  0.45754247  0.10114711    -0.24900
C134        C  0.14350152  0.45944613  0.12494115     0.27800
H135        H  0.20686541  0.54873057  0.10355383     0.13600
N136        N  0.15339149  0.55525019  0.05666649    -0.82100
H137        H  0.08777731  0.43248185  0.10058932     0.18400
N138        N  0.13815866  0.42925651  0.14902059    -0.80700
H139        H  0.18005720  0.57726584  0.06046706     0.34000
H140        H  0.12405276  0.57447192  0.05729906     0.38500
H141        H  0.11086394  0.40788490  0.14554301     0.34000
H142        H  0.16663635  0.40886489  0.15018233     0.30700
H143        H  0.29138735  0.42684414  0.13103898     0.34000
H144        H  0.23680208  0.41768162  0.12456167     0.30700
H145        H  0.24148120  0.58092295  0.22185123     0.38600
H146        H  0.18619789  0.57601894  0.21569356     0.34100
C147        C  0.12223004  0.47758689  0.42819756    -0.19700
C148        C  0.12276406  0.44144589  0.40833587     0.36500
C149        C  0.15530751  0.44061586  0.38648978    -0.25700
C150        C  0.18773546  0.47452928  0.38427355     0.03000
C151        C  0.18899356  0.50888753  0.40518290     0.27800
C152        C  0.15591267  0.51038153  0.42671039    -0.24800
N153        N  0.09099205  0.40521693  0.40961310    -0.82200
H154        H  0.15440261  0.41400595  0.37057292     0.13600
C155        C  0.21664125  0.47694194  0.35820154     0.02900
N156        N  0.22348029  0.54253597  0.40405949    -0.80700
H157        H  0.15590955  0.53760149  0.44220520     0.18400
C158        C  0.21194004  0.51425996  0.33990544    -0.25600
C159        C  0.23703452  0.51821003  0.31444898     0.36400
C160        C  0.26792485  0.48422481  0.30712730    -0.19600
C161        C  0.27302380  0.44686311  0.32548311    -0.24900
C162        C  0.24725582  0.44265269  0.35090104     0.27800
H163        H  0.18794885  0.54020554  0.34536219     0.13600
N164        N  0.23101113  0.55648091  0.29579308    -0.82100
H165        H  0.29634321  0.42055054  0.31959689     0.18400
N166        N  0.25174230  0.40374356  0.36914049    -0.80700
H167        H  0.20664174  0.57811761  0.30406369     0.34000
H168        H  0.26119902  0.57432591  0.29559776     0.38500
H169        H  0.27531073  0.38149852  0.36058119     0.34000
H170        H  0.26442430  0.41438663  0.38910398     0.30700
H171        H  0.21962941  0.56553710  0.42091122     0.34000
H172        H  0.25421716  0.52641904  0.40754362     0.30700
H173        H  0.06989538  0.40777061  0.42746797     0.38600
H174        H  0.07073054  0.40724756  0.39110984     0.34100
C175        C  0.73727410  0.51288138  0.19526795    -0.19700
C176        C  0.72375240  0.53677007  0.17016240     0.36500
C177        C  0.75095597  0.53563167  0.14530009    -0.25700
C178        C  0.79193318  0.51247064  0.14536403     0.03000
C179        C  0.80628989  0.49001261  0.17062325     0.27800
C180        C  0.77830774  0.48941926  0.19492665    -0.24800
N181        N  0.68337607  0.56317671  0.17021927    -0.82200
H182        H  0.74076499  0.55374223  0.12598377     0.13600
C183        C  0.82098515  0.51397757  0.11949952     0.02900
N184        N  0.85028188  0.47009750  0.17209509    -0.80700
H185        H  0.78906229  0.47095086  0.21396497     0.18400
C186        C  0.84596503  0.55284694  0.11384053    -0.25600
C187        C  0.87678054  0.55442181  0.09101720     0.36400
C188        C  0.88431193  0.51524418  0.07436343    -0.19600
C189        C  0.85787393  0.47706402  0.07939520    -0.24900
C190        C  0.82522012  0.47652617  0.10118153     0.27800
H191        H  0.84164608  0.58211966  0.12740837     0.13600
N192        N  0.89951769  0.59609130  0.08542330    -0.82100
H193        H  0.86264812  0.44761851  0.06605343     0.18400
N194        N  0.79528100  0.43893309  0.10400716    -0.80700
H195        H  0.91984256  0.60325957  0.10333413     0.34000
H196        H  0.92041546  0.59395310  0.06744188     0.38500
H197        H  0.80193249  0.41496710  0.08811006     0.34000
H198        H  0.80117331  0.42330188  0.12388568     0.30700
H199        H  0.85650187  0.45702264  0.19275472     0.34000
H200        H  0.85132258  0.44294467  0.15793711     0.30700
H201        H  0.68775030  0.58892718  0.18527685     0.38600
H202        H  0.67838728  0.57861869  0.15010757     0.34100
C203        C  0.88986224  0.50740201  0.42311077    -0.19700
C204        C  0.87041593  0.46730517  0.41300098     0.36500
C205        C  0.83874878  0.46903187  0.39040552    -0.25700
C206        C  0.82642226  0.51000362  0.37752382     0.03000
C207        C  0.84543723  0.55025556  0.38799130     0.27800
C208        C  0.87673268  0.54854743  0.41090959    -0.24800
N209        N  0.88358580  0.42496915  0.42540454    -0.82200
H210        H  0.82395874  0.43819776  0.38248505     0.13600
C211        C  0.79578091  0.50968179  0.35196258     0.02900
N212        N  0.83370021  0.59248507  0.37487407    -0.80700
H213        H  0.89166708  0.57922981  0.41895478     0.18400
C214        C  0.75539501  0.53407429  0.35237284    -0.25600
C215        C  0.72660915  0.53524793  0.32803345     0.34900
C216        C  0.73821358  0.51082743  0.30294262    -0.19600
C217        C  0.77798576  0.48538674  0.30310544    -0.24900
C218        C  0.80711507  0.48513609  0.32701556     0.27800
H219        H  0.74662011  0.55266381  0.37164793     0.13600
N220        N  0.68636959  0.56184492  0.32856685    -0.82100
H221        H  0.78681272  0.46599368  0.28417178     0.18400
N222        N  0.84868769  0.46066354  0.32585384    -0.80700
H223        H  0.68268524  0.57741276  0.34864914     0.34000
H224        H  0.68989395  0.58747995  0.31323707     0.38500
H225        H  0.85192057  0.44421259  0.30603550     0.34000
H226        H  0.87482835  0.48400634  0.32696296     0.30700
H227        H  0.85053006  0.61882705  0.38516449     0.34000
H228        H  0.84507432  0.59194728  0.35352596     0.30700
H229        H  0.87299833  0.42455052  0.44693543     0.38600
H230        H  0.86695028  0.39858528  0.41507040     0.34100
C231        C  0.49557055  0.11414649  0.07509040    -0.19700
C232        C  0.53526235  0.12256604  0.09082808     0.36500
C233        C  0.53462533  0.15285580  0.11400304    -0.25700
C234        C  0.49532675  0.17627941  0.12100399     0.03000
C235        C  0.45648215  0.17071254  0.10377797     0.27800
C236        C  0.45664035  0.13863072  0.08152342    -0.24800
N237        N  0.57609945  0.10007335  0.08341807    -0.82200
H238        H  0.56486978  0.15799441  0.12667912     0.13600
C239        C  0.49547647  0.20616578  0.14654705     0.02900
N240        N  0.41803425  0.19920488  0.10786878    -0.80700
H241        H  0.42653466  0.13310434  0.06878875     0.18400
C242        C  0.51937584  0.24663750  0.14555361    -0.25600
C243        C  0.52262723  0.27437498  0.17003589     0.36400
C244        C  0.49963161  0.26272503  0.19567477    -0.19600
C245        C  0.47513475  0.22229500  0.19623991    -0.24900
C246        C  0.47462719  0.19298817  0.17251964     0.27800
H247        H  0.53691644  0.25596721  0.12594430     0.13600
N248        N  0.55117502  0.31296475  0.16913027    -0.82100
H249        H  0.45739060  0.21260383  0.21566903     0.18400
N250        N  0.45621056  0.14857854  0.17552883    -0.80700
H251        H  0.58368673  0.30221189  0.16417975     0.34000
H252        H  0.54008416  0.33379586  0.15233840     0.38500
H253        H  0.44485749  0.14323864  0.19663775     0.34000
H254        H  0.42817725  0.14572771  0.16209900     0.30700
H255        H  0.39315975  0.19197515  0.09252531     0.34000
H256        H  0.40407848  0.19240525  0.12803185     0.30700
H257        H  0.60009227  0.12448456  0.07847008     0.38600
H258        H  0.58737221  0.08241415  0.10162689     0.34100
C259        C  0.51753492  0.26419712  0.30325796    -0.19700
C260        C  0.54414726  0.22492146  0.30553115     0.36500
C261        C  0.54077441  0.19773093  0.33027948    -0.25700
C262        C  0.51290716  0.20983411  0.35324452     0.03000
C263        C  0.48938690  0.25081208  0.35225533     0.27800
C264        C  0.49146334  0.27736196  0.32708718    -0.24800
N265        N  0.57448168  0.21279155  0.28273871    -0.82200
H266        H  0.55973320  0.16673729  0.33165003     0.13600
C267        C  0.50835660  0.17860607  0.37792462     0.02900
N268        N  0.46407658  0.26554397  0.37689458    -0.80700
H269        H  0.47147306  0.30767037  0.32576185     0.18400
C270        C  0.54212140  0.17716716  0.39912797    -0.25600
C271        C  0.54032147  0.14582630  0.42189605     0.36400
C272        C  0.50340534  0.11638937  0.42374585    -0.19600
C273        C  0.46972110  0.11786099  0.40246248    -0.24900
C274        C  0.47218949  0.14821279  0.37924135     0.27800
H275        H  0.57035211  0.19991089  0.39749586     0.13600
N276        N  0.57600803  0.14319438  0.44286447    -0.82100
H277        H  0.44200263  0.09442559  0.40368130     0.18400
N278        N  0.43944157  0.14679457  0.35628991    -0.80700
H279        H  0.60066690  0.16712830  0.43839383     0.34000
H280        H  0.59126054  0.11178180  0.44069233     0.38500
H281        H  0.41605682  0.12131382  0.36007024     0.34000
H282        H  0.42154053  0.17689638  0.35640863     0.30700
H283        H  0.44975618  0.29699701  0.37288703     0.34000
H284        H  0.43746929  0.24330422  0.38000348     0.30700
H285        H  0.59883900  0.23792101  0.28137037     0.38600
H286        H  0.59134528  0.18297595  0.28777017     0.34100
C287        C  0.47810536  0.88060253  0.07243389    -0.19700
C288        C  0.44496315  0.88017583  0.09433491     0.36500
C289        C  0.44924644  0.85001957  0.11752404    -0.25700
C290        C  0.48497772  0.81945151  0.11895570     0.03000
C291        C  0.51605337  0.81744504  0.09608915     0.27800
C292        C  0.51272821  0.84862123  0.07329464    -0.24800
N293        N  0.40671866  0.90963289  0.09375474    -0.82200
H294        H  0.42462576  0.85062836  0.13471071     0.13600
C295        C  0.48942773  0.79011128  0.14472392     0.02900
N296        N  0.54992805  0.78303233  0.09564139    -0.80700
H297        H  0.53764211  0.84850965  0.05628652     0.18400
C298        C  0.46109358  0.75285527  0.14762228    -0.25600
C299        C  0.46253597  0.72567218  0.17260416     0.36400
C300        C  0.49399956  0.73531156  0.19472639    -0.19600
C301        C  0.52252136  0.77258539  0.19151533    -0.24900
C302        C  0.51983702  0.80068533  0.16712583     0.27800
H303        H  0.43701027  0.74570701  0.13061350     0.13600
N304        N  0.43121383  0.68940375  0.17596383    -0.82100
H305        H  0.54641792  0.78043476  0.20850234     0.18400
N306        N  0.54589574  0.84127895  0.16586485    -0.80700
H307        H  0.41032364  0.68697765  0.15779849     0.34000
H308        H  0.41049691  0.69713054  0.19346153     0.38500
H309        H  0.56500497  0.84507131  0.18473174     0.34000
H310        H  0.56872477  0.83862078  0.14891699     0.30700
H311        H  0.56915468  0.78554201  0.07683833     0.34000
H312        H  0.57192110  0.78816963  0.11293858     0.30700
H313        H  0.40530517  0.92863339  0.07475890     0.38600
H314        H  0.41004053  0.93202913  0.11098789     0.34100
C315        C  0.50314791  0.73604146  0.30235771    -0.19700
C316        C  0.53310507  0.77252253  0.30551303     0.36500
C317        C  0.53066135  0.79953200  0.33030669    -0.25700
C318        C  0.49930733  0.79053473  0.35205507     0.03000
C319        C  0.47075986  0.75310253  0.34957381     0.27800
C320        C  0.47294316  0.72616176  0.32471132    -0.24800
N321        N  0.56565993  0.78210095  0.28346466    -0.82200
H322        H  0.55278223  0.82817317  0.33252928     0.13600
C323        C  0.49591338  0.82151496  0.37690701     0.02900
N324        N  0.43934055  0.74305650  0.37217896    -0.80700
H325        H  0.45004041  0.69819003  0.32234701     0.18400
C326        C  0.45766432  0.84857373  0.37959493    -0.25600
C327        C  0.45392583  0.87981879  0.40203907     0.36400
C328        C  0.48966170  0.88433258  0.42212480    -0.19600
C329        C  0.52753272  0.85658981  0.41974213    -0.24900
C330        C  0.53084376  0.82489532  0.39740688     0.27800
H331        H  0.43061285  0.84558966  0.36395552     0.13600
N332        N  0.41333061  0.90576374  0.40391156    -0.82100
H333        H  0.55462980  0.85994858  0.43530453     0.18400
N334        N  0.56937108  0.79604673  0.39540700    -0.80700
H335        H  0.41175593  0.92656320  0.38567351     0.34000
H336        H  0.41323859  0.92664684  0.42198392     0.38500
H337        H  0.59201938  0.80271210  0.41220731     0.34000
H338        H  0.55833801  0.76308379  0.39841280     0.30700
H339        H  0.42064362  0.71448980  0.36700050     0.34000
H340        H  0.45782074  0.73517489  0.39080125     0.30700
H341        H  0.58776451  0.75487343  0.28258013     0.38600
H342        H  0.58482591  0.81016626  0.28901085     0.34100
N343        N  0.49196434  0.00019099  0.95411542    -0.36400
N344        N  0.48507009  0.93014503  0.49766467    -0.57000
N345        N  0.48564790  0.99845697  0.54260294    -0.36400
N346        N  0.49667455  0.06828604  0.49918028    -0.57000
C347        C  0.50013788  0.96339713  0.93786544     0.27200
C348        C  0.50535588  0.03626532  0.93858679     0.27200
C349        C  0.48962241  0.96076075  0.55887460     0.27100
C350        C  0.49588136  0.03377091  0.55981943     0.27100
C351        C  0.47872940  0.90490419  0.97377006     0.35800
C352        C  0.47454783  0.90389003  0.52051700     0.35800
C353        C  0.49364946  0.09543731  0.97575581     0.35800
C354        C  0.49102331  0.09465704  0.52263918     0.35800
C355        C  0.51856617  0.97629162  0.91162866    -0.21700
C356        C  0.52191880  0.02226493  0.91209809    -0.21700
C357        C  0.50208174  0.97231319  0.58681650    -0.21700
C358        C  0.50542221  0.01820941  0.58751975    -0.21700
C359        C  0.46429310  0.86233815  0.98143459    -0.22800
C360        C  0.46154359  0.86171938  0.51108818    -0.22800
C361        C  0.48638712  0.13932666  0.98433863    -0.22800
C362        C  0.48518446  0.13892825  0.51402068    -0.22800
C363        C  0.48901257  0.91872780  0.94533739    -0.18100
C364        C  0.50055818  0.08166163  0.94687216    -0.18100
C365        C  0.49410722  0.07975738  0.55171929    -0.18100
C366        C  0.47981820  0.91637390  0.54981626    -0.18100
H367        H  0.52829205  0.95483204  0.89387511     0.14800
H368        H  0.53483114  0.04306198  0.89479356     0.14800
H369        H  0.50748038  0.95008416  0.60506898     0.14800
H370        H  0.51340084  0.03765511  0.60655956     0.14800
H371        H  0.45713115  0.83447044  0.96718339     0.13100
H372        H  0.45177262  0.83325972  0.52421979     0.13100
H373        H  0.48320472  0.16874563  0.97068919     0.13100
H374        H  0.48104243  0.16812979  0.52758422     0.13100
H375        H  0.47345246  0.00111167  0.97309078     0.26300
H376        H  0.47190490  0.00030957  0.52197308     0.26300
C377        C  0.51407329  0.28985690  0.77558117     0.03300
C378        C  0.50932689  0.26671409  0.74939483    -0.12800
C379        C  0.50403352  0.28942223  0.72293710     0.00800
C380        C  0.50229409  0.33666641  0.72309211    -0.11400
C381        C  0.50667446  0.36075787  0.74920756     0.03300
C382        C  0.51284015  0.33695259  0.77527977    -0.10800
H383        H  0.50943030  0.23043454  0.74967972     0.08900
H384        H  0.49651841  0.35463350  0.70302195     0.06400
H385        H  0.51669136  0.35504069  0.79542814     0.06300
C386        C  0.50097185  0.70991685  0.77508034     0.03300
C387        C  0.50118069  0.66278089  0.77535695    -0.12800
C388        C  0.49887476  0.63843568  0.74932255     0.00800
C389        C  0.49674282  0.66213988  0.72284556    -0.11400
C390        C  0.49571301  0.70934617  0.72235217     0.03300
C391        C  0.49719466  0.73265680  0.74862318    -0.10800
H392        H  0.50361806  0.64520796  0.79586533     0.08900
H393        H  0.49633131  0.64396018  0.70259727     0.06400
H394        H  0.49494203  0.76895487  0.74851796     0.06300
N395        N  0.00452902  0.49334643  0.95662683    -0.36400
N396        N  0.93464393  0.50876403  0.49958908    -0.57000
N397        N  0.00119718  0.49765128  0.54554166    -0.36400
N398        N  0.07187465  0.48764299  0.50244668    -0.57000
C399        C  0.96995083  0.50515228  0.93904764     0.27200
C400        C  0.04253376  0.49481683  0.94067132     0.27200
C401        C  0.96541041  0.51051509  0.56148229     0.27100
C402        C  0.03796745  0.50034993  0.56278608     0.27100
C403        C  0.90839162  0.50681016  0.97566172     0.35800
C404        C  0.90661894  0.50962721  0.52253079     0.35800
C405        C  0.09820297  0.47704909  0.97973754     0.35800
C406        C  0.09648149  0.47960726  0.52655171     0.35800
C407        C  0.98609621  0.51356476  0.91146330    -0.21700
C408        C  0.03183699  0.50734413  0.91252809    -0.21700
C409        C  0.97959707  0.52006505  0.58943857    -0.21700
C410        C  0.02523389  0.51449249  0.59010375    -0.21700
C411        C  0.86353752  0.50759763  0.98340854    -0.22800
C412        C  0.86240290  0.50961086  0.51301239    -0.22800
C413        C  0.13981089  0.46241016  0.98947766    -0.22800
C414        C  0.13871787  0.46403949  0.51912138    -0.22800
C415        C  0.92397373  0.50642652  0.94678195    -0.18100
C416        C  0.08627482  0.48278236  0.95029468    -0.18100
C417        C  0.08254240  0.48883126  0.55512828    -0.18100
C418        C  0.92006388  0.51219286  0.55194675    -0.18100
H419        H  0.96694079  0.52309455  0.89245791     0.14800
H420        H  0.05455444  0.51112443  0.89448118     0.14800
H421        H  0.95948099  0.52994872  0.60773066     0.14800
H422        H  0.04644616  0.51986798  0.60883860     0.14800
H423        H  0.83455560  0.50726006  0.96920745     0.13100
H424        H  0.83228907  0.51126399  0.52594741     0.13100
H425        H  0.16818595  0.45201168  0.97658836     0.13100
H426        H  0.16606644  0.45518185  0.53354647     0.13100
H427        H  0.00163912  0.48008679  0.97725819     0.26300
H428        H  0.99995631  0.48360212  0.52511842     0.26300
C429        C  0.29276078  0.48668106  0.77940607     0.03300
C430        C  0.26852582  0.48915125  0.75343480    -0.12800
C431        C  0.29038668  0.49563680  0.72698051     0.00800
C432        C  0.33745094  0.49792907  0.72649480    -0.11400
C433        C  0.36265874  0.49439465  0.75224884     0.03300
C434        C  0.33986095  0.48886031  0.77875083    -0.10800
H435        H  0.23228110  0.48618160  0.75391082     0.08900
H436        H  0.35431957  0.50288206  0.70601626     0.06400
H437        H  0.35850442  0.48689572  0.79889767     0.06300
C438        C  0.71116302  0.51246029  0.77565173     0.03300
C439        C  0.66437562  0.50654203  0.77543727    -0.12800
C440        C  0.64024334  0.50518869  0.74909634     0.00800
C441        C  0.66397312  0.50711985  0.72281193    -0.11400
C442        C  0.71078284  0.51323468  0.72265097     0.03300
C443        C  0.73346894  0.51746614  0.74918272    -0.10800
H444        H  0.64686024  0.50235508  0.79573584     0.08900
H445        H  0.64607183  0.50327449  0.70253908     0.06400
H446        H  0.76927111  0.52378403  0.74927292     0.06300
O447        O  0.50288540  0.43225471  0.72554562    -0.72800
O448        O  0.49863118  0.56700529  0.72584796    -0.73800
O449        O  0.56844097  0.50177593  0.72529639    -0.62400
O450        O  0.43290188  0.49749026  0.72705074    -0.70800
O451        O  0.43493818  0.49739047  0.77498480    -0.70300
O452        O  0.56960316  0.50114589  0.77323998    -0.61600
O453        O  0.50065289  0.56715038  0.77377918    -0.74100
O454        O  0.50437983  0.43172381  0.77349017    -0.72900
Cu455      Cu  0.50060296  0.49964621  0.72427650     1.04600
Cu456      Cu  0.50240534  0.49933560  0.77552024     1.04300
C457        C  0.50451204  0.41056808  0.74942064     0.93400
C458        C  0.49936010  0.58853861  0.74970834     0.92600
C459        C  0.59045611  0.50224563  0.74915828     0.84700
C460        C  0.41248267  0.49660878  0.75137549     0.91000
C461        C  0.26366889  0.49868243  0.69985253    -0.19700
C462        C  0.22554566  0.52684430  0.69777849     0.36500
C463        C  0.19791034  0.52448494  0.67313266    -0.25700
C464        C  0.20850354  0.49570890  0.65027783     0.03000
C465        C  0.24813820  0.47003565  0.65133005     0.27800
C466        C  0.27522258  0.47147117  0.67626834    -0.24800
N467        N  0.21521462  0.55775115  0.72063809    -0.82200
H468        H  0.16788771  0.54494996  0.67173201     0.13600
C469        C  0.17736482  0.49240148  0.62548767     0.02900
N470        N  0.26078084  0.44293569  0.62700448    -0.80700
H471        H  0.30476847  0.45035157  0.67763344     0.18400
C472        C  0.18095590  0.52327414  0.60272611    -0.25600
C473        C  0.15069531  0.52225787  0.57935387     0.36400
C474        C  0.11710586  0.48892680  0.57852168    -0.19600
C475        C  0.11408941  0.45754247  0.60114706    -0.24900
C476        C  0.14350153  0.45944598  0.62494107     0.27800
H477        H  0.20686545  0.54873047  0.60355377     0.13600
N478        N  0.15339126  0.55525033  0.55666664    -0.82100
H479        H  0.08777721  0.43248179  0.60058927     0.18400
N480        N  0.13815885  0.42925635  0.64902047    -0.80700
H481        H  0.18005678  0.57726585  0.56046716     0.34000
H482        H  0.12405205  0.57447232  0.55729938     0.38500
H483        H  0.11086352  0.40788415  0.64554267     0.34000
H484        H  0.16663602  0.40886505  0.65018222     0.30700
H485        H  0.29138664  0.42684419  0.63103888     0.34000
H486        H  0.23680153  0.41768089  0.62456167     0.30700
H487        H  0.24148153  0.58092310  0.72185097     0.38600
H488        H  0.18619822  0.57601906  0.71569336     0.34100
C489        C  0.12222999  0.47758691  0.92819754    -0.19700
C490        C  0.12276380  0.44144601  0.90833573     0.36500
C491        C  0.15530717  0.44061593  0.88648964    -0.25700
C492        C  0.18773538  0.47452912  0.88427347     0.03000
C493        C  0.18899366  0.50888728  0.90518289     0.27800
C494        C  0.15591284  0.51038135  0.92671042    -0.24800
N495        N  0.09099157  0.40521724  0.90961300    -0.82200
H496        H  0.15440202  0.41400611  0.87057270     0.13600
C497        C  0.21664111  0.47694168  0.85820142     0.02900
N498        N  0.22348055  0.54253559  0.90405948    -0.80700
H499        H  0.15590989  0.53760124  0.94220529     0.18400
C500        C  0.21193988  0.51425976  0.83990534    -0.25600
C501        C  0.23703444  0.51820987  0.81444892     0.36400
C502        C  0.26792485  0.48422477  0.80712725    -0.19600
C503        C  0.27302372  0.44686294  0.82548300    -0.24900
C504        C  0.24725564  0.44265249  0.85090093     0.27800
H505        H  0.18794885  0.54020519  0.84536208     0.13600
N506        N  0.23101111  0.55648077  0.79579302    -0.82100
H507        H  0.29634303  0.42055045  0.81959675     0.18400
N508        N  0.25174225  0.40374329  0.86914029    -0.80700
H509        H  0.20664144  0.57811754  0.80406364     0.34000
H510        H  0.26119864  0.57432560  0.79559779     0.38500
H511        H  0.27531030  0.38149874  0.86058128     0.34000
H512        H  0.26442455  0.41438681  0.88910437     0.30700
H513        H  0.21962979  0.56553671  0.92091132     0.34000
H514        H  0.25421716  0.52641865  0.90754349     0.30700
H515        H  0.06989547  0.40777077  0.92746743     0.38600
H516        H  0.07072958  0.40724826  0.89110931     0.34100
C517        C  0.73727414  0.51288136  0.69526795    -0.19700
C518        C  0.72375244  0.53677011  0.67016237     0.36500
C519        C  0.75095601  0.53563164  0.64530009    -0.25700
C520        C  0.79193322  0.51247061  0.64536400     0.03000
C521        C  0.80629003  0.49001254  0.67062324     0.27800
C522        C  0.77830776  0.48941917  0.69492661    -0.24800
N523        N  0.68337615  0.56317676  0.67021934    -0.82200
H524        H  0.74076503  0.55374224  0.62598377     0.13600
C525        C  0.82098510  0.51397758  0.61949948     0.02900
N526        N  0.85028194  0.47009746  0.67209501    -0.80700
H527        H  0.78906226  0.47095066  0.71396494     0.18400
C528        C  0.84596492  0.55284696  0.61384043    -0.25600
C529        C  0.87678047  0.55442179  0.59101715     0.36400
C530        C  0.88431185  0.51524419  0.57436338    -0.19600
C531        C  0.85787374  0.47706404  0.57939508    -0.24900
C532        C  0.82522002  0.47652622  0.60118148     0.27800
H533        H  0.84164594  0.58211979  0.62740828     0.13600
N534        N  0.89951771  0.59609123  0.58542328    -0.82100
H535        H  0.86264782  0.44761873  0.56605334     0.18400
N536        N  0.79528092  0.43893312  0.60400715    -0.80700
H537        H  0.91984244  0.60325941  0.60333402     0.34000
H538        H  0.92041559  0.59395298  0.56744180     0.38500
H539        H  0.80193236  0.41496707  0.58811003     0.34000
H540        H  0.80117330  0.42330193  0.62388568     0.30700
H541        H  0.85650208  0.45702231  0.69275502     0.34000
H542        H  0.85132268  0.44294443  0.65793705     0.30700
H543        H  0.68775023  0.58892696  0.68527669     0.38600
H544        H  0.67838727  0.57861910  0.65010718     0.34100
C545        C  0.88986222  0.50740220  0.92311080    -0.19700
C546        C  0.87041583  0.46730536  0.91300107     0.36500
C547        C  0.83874864  0.46903211  0.89040561    -0.25700
C548        C  0.82642223  0.51000383  0.87752387     0.03000
C549        C  0.84543721  0.55025578  0.88799134     0.27800
C550        C  0.87673265  0.54854763  0.91090966    -0.24800
N551        N  0.88358548  0.42496931  0.92540461    -0.82200
H552        H  0.82395841  0.43819799  0.88248519     0.13600
C553        C  0.79578090  0.50968200  0.85196265     0.02900
N554        N  0.83370022  0.59248526  0.87487407    -0.80700
H555        H  0.89166703  0.57923004  0.91895485     0.18400
C556        C  0.75539493  0.53407435  0.85237292    -0.25600
C557        C  0.72660907  0.53524781  0.82803352     0.34900
C558        C  0.73821358  0.51082747  0.80294269    -0.19600
C559        C  0.77798583  0.48538697  0.80310548    -0.24900
C560        C  0.80711516  0.48513630  0.82701560     0.27800
H561        H  0.74662005  0.55266392  0.87164803     0.13600
N562        N  0.68636942  0.56184482  0.82856695    -0.82100
H563        H  0.78681290  0.46599402  0.78417177     0.18400
N564        N  0.84868780  0.46066396  0.82585388    -0.80700
H565        H  0.68268509  0.57741225  0.84864877     0.34000
H566        H  0.68989396  0.58747981  0.81323709     0.38500
H567        H  0.85192083  0.44421293  0.80603529     0.34000
H568        H  0.87482853  0.48400696  0.82696297     0.30700
H569        H  0.85053003  0.61882721  0.88516444     0.34000
H570        H  0.84507432  0.59194742  0.85352596     0.30700
H571        H  0.87299773  0.42455089  0.94693604     0.38600
H572        H  0.86695000  0.39858577  0.91507072     0.34100
C573        C  0.49557057  0.11414653  0.57509038    -0.19700
C574        C  0.53526240  0.12256617  0.59082802     0.36500
C575        C  0.53462531  0.15285585  0.61400302    -0.25700
C576        C  0.49532671  0.17627938  0.62100402     0.03000
C577        C  0.45648214  0.17071250  0.60377800     0.27800
C578        C  0.45664031  0.13863075  0.58152340    -0.24800
N579        N  0.57609954  0.10007371  0.58341790    -0.82200
H580        H  0.56486979  0.15799453  0.62667908     0.13600
C581        C  0.49547645  0.20616569  0.64654709     0.02900
N582        N  0.41803419  0.19920490  0.60786873    -0.80700
H583        H  0.42653476  0.13310440  0.56878874     0.18400
C584        C  0.51937583  0.24663745  0.64555369    -0.25600
C585        C  0.52262719  0.27437490  0.67003595     0.36400
C586        C  0.49963146  0.26272501  0.69567479    -0.19600
C587        C  0.47513446  0.22229502  0.69623990    -0.24900
C588        C  0.47462709  0.19298816  0.67251967     0.27800
H589        H  0.53691644  0.25596719  0.62594430     0.13600
N590        N  0.55117503  0.31296466  0.66913042    -0.82100
H591        H  0.45739021  0.21260399  0.71566899     0.18400
N592        N  0.45621043  0.14857845  0.67552882    -0.80700
H593        H  0.58368640  0.30221203  0.66418001     0.34000
H594        H  0.54008400  0.33379610  0.65233831     0.38500
H595        H  0.44485732  0.14323856  0.69663783     0.34000
H596        H  0.42817755  0.14572760  0.66209910     0.30700
H597        H  0.39316006  0.19197534  0.59252541     0.34000
H598        H  0.40407833  0.19240525  0.62803193     0.30700
H599        H  0.60009262  0.12448560  0.57846987     0.38600
H600        H  0.58737249  0.08241460  0.60162645     0.34100
C601        C  0.51753487  0.26419706  0.80325797    -0.19700
C602        C  0.54414726  0.22492145  0.80553117     0.36500
C603        C  0.54077446  0.19773091  0.83027952    -0.25700
C604        C  0.51290715  0.20983400  0.85324452     0.03000
C605        C  0.48938681  0.25081187  0.85225533     0.27800
C606        C  0.49146323  0.27736184  0.82708718    -0.24800
N607        N  0.57448166  0.21279160  0.78273873    -0.82200
H608        H  0.55973335  0.16673732  0.83165008     0.13600
C609        C  0.50835659  0.17860600  0.87792464     0.02900
N610        N  0.46407652  0.26554392  0.87689456    -0.80700
H611        H  0.47147291  0.30767020  0.82576185     0.18400
C612        C  0.54212137  0.17716708  0.89912800    -0.25600
C613        C  0.54032144  0.14582620  0.92189604     0.36400
C614        C  0.50340531  0.11638933  0.92374587    -0.19600
C615        C  0.46972101  0.11786096  0.90246252    -0.24900
C616        C  0.47218945  0.14821276  0.87924139     0.27800
H617        H  0.57035211  0.19991089  0.89749590     0.13600
N618        N  0.57600804  0.14319440  0.94286449    -0.82100
H619        H  0.44200253  0.09442557  0.90368135     0.18400
N620        N  0.43944153  0.14679451  0.85628994    -0.80700
H621        H  0.60066657  0.16712801  0.93839387     0.34000
H622        H  0.59126062  0.11178161  0.94069239     0.38500
H623        H  0.41605687  0.12131419  0.86007025     0.34000
H624        H  0.42154038  0.17689689  0.85640862     0.30700
H625        H  0.44975650  0.29699616  0.87288718     0.34000
H626        H  0.43746865  0.24330360  0.88000347     0.30700
H627        H  0.59883902  0.23792107  0.78137041     0.38600
H628        H  0.59134521  0.18297600  0.78777015     0.34100
C629        C  0.47810541  0.88060260  0.57243391    -0.19700
C630        C  0.44496322  0.88017593  0.59433495     0.36500
C631        C  0.44924656  0.85001967  0.61752410    -0.25700
C632        C  0.48497779  0.81945152  0.61895570     0.03000
C633        C  0.51605338  0.81744504  0.59608912     0.27800
C634        C  0.51272822  0.84862124  0.57329464    -0.24800
N635        N  0.40671867  0.90963296  0.59375481    -0.82200
H636        H  0.42462590  0.85062846  0.63471082     0.13600
C637        C  0.48942786  0.79011122  0.64472390     0.02900
N638        N  0.54992800  0.78303222  0.59564136    -0.80700
H639        H  0.53764209  0.84850965  0.55628649     0.18400
C640        C  0.46109357  0.75285531  0.64762228    -0.25600
C641        C  0.46253597  0.72567218  0.67260416     0.36400
C642        C  0.49399962  0.73531147  0.69472636    -0.19600
C643        C  0.52252138  0.77258533  0.69151534    -0.24900
C644        C  0.51983714  0.80068521  0.66712581     0.27800
H645        H  0.43701022  0.74570717  0.63061358     0.13600
N646        N  0.43121379  0.68940382  0.67596382    -0.82100
H647        H  0.54641789  0.78043472  0.70850236     0.18400
N648        N  0.54589600  0.84127873  0.66586480    -0.80700
H649        H  0.41032359  0.68697775  0.65779848     0.34000
H650        H  0.41049689  0.69713062  0.69346152     0.38500
H651        H  0.56500524  0.84507106  0.68473172     0.34000
H652        H  0.56872502  0.83862040  0.64891698     0.30700
H653        H  0.56915466  0.78554189  0.57683818     0.34000
H654        H  0.57192080  0.78816932  0.61293836     0.30700
H655        H  0.40530523  0.92863362  0.57475874     0.38600
H656        H  0.41004034  0.93202885  0.61098766     0.34100
C657        C  0.50314786  0.73604151  0.80235763    -0.19700
C658        C  0.53310488  0.77252269  0.80551292     0.36500
C659        C  0.53066113  0.79953216  0.83030660    -0.25700
C660        C  0.49930723  0.79053472  0.85205503     0.03000
C661        C  0.47075997  0.75310236  0.84957380     0.27800
C662        C  0.47294323  0.72616170  0.82471128    -0.24800
N663        N  0.56565966  0.78210134  0.78346449    -0.82200
H664        H  0.55278185  0.82817346  0.83252915     0.13600
C665        C  0.49591318  0.82151492  0.87690699     0.02900
N666        N  0.43934081  0.74305622  0.87217900    -0.80700
H667        H  0.45004049  0.69818993  0.82234698     0.18400
C668        C  0.45766407  0.84857363  0.87959494    -0.25600
C669        C  0.45392559  0.87981873  0.90203909     0.36400
C670        C  0.48966154  0.88433254  0.92212479    -0.19600
C671        C  0.52753258  0.85658987  0.91974205    -0.24900
C672        C  0.53084366  0.82489535  0.89740678     0.27800
H673        H  0.43061258  0.84558956  0.86395560     0.13600
N674        N  0.41333034  0.90576354  0.90391175    -0.82100
H675        H  0.55462969  0.85994865  0.93530439     0.18400
N676        N  0.56937101  0.79604695  0.89540690    -0.80700
H677        H  0.41175544  0.92656324  0.88567354     0.34000
H678        H  0.41323840  0.92664655  0.92198398     0.38500
H679        H  0.59201939  0.80271235  0.91220713     0.34000
H680        H  0.55833781  0.76308341  0.89841292     0.30700
H681        H  0.42064388  0.71448935  0.86700050     0.34000
H682        H  0.45782101  0.73517466  0.89080123     0.30700
H683        H  0.58776419  0.75487399  0.78257984     0.38600
H684        H  0.58482531  0.81016646  0.78901061     0.34100
loop_ 
_geom_bond_atom_site_label_1 
_geom_bond_atom_site_label_2 
_geom_bond_distance 
_geom_bond_site_symmetry_2 
_ccdc_geom_bond_type 
N1            C6   1.352       .  A
N1            C5   1.354   1_545  A
N1           H33   1.039       .  S
N2           C10   1.351   1_556  A
N2          C351   1.351       .  A
N3            C8   1.356   1_565  A
N3            C7   1.355       .  A
N3           H34   1.037   1_565  S
N4           C12   1.352   1_556  A
N4          C353   1.352       .  A
C5           C13   1.387       .  A
C5           C21   1.414       .  A
C6           C22   1.415       .  A
C6           C14   1.387       .  A
C7           C15   1.386       .  A
C7           C24   1.419       .  A
C8           C23   1.420       .  A
C8           C16   1.388       .  A
C9          N344   1.351       .  A
C9           C21   1.411       .  A
C9           C17   1.385       .  A
C10          C24   1.413       .  A
C10          C18   1.387       .  A
C11         N346   1.352       .  A
C11          C19   1.385       .  A
C11          C22   1.414       .  A
C12          C20   1.388       .  A
C12          C23   1.416       .  A
C13          C14   1.374   1_565  A
C13          H25   1.082       .  S
C14          H26   1.082       .  S
C15          C16   1.372   1_565  A
C15          H27   1.082       .  S
C16          H28   1.081       .  S
C17         C360   1.373       .  A
C17          H29   1.082       .  S
C18         C359   1.373   1_554  A
C18          H30   1.082       .  S
C19         C362   1.372       .  A
C19          H31   1.082       .  S
C20         C361   1.372   1_554  A
C20          H32   1.082       .  S
C21         C328   1.486       .  S
C22         C272   1.488       .  S
C23         C231   1.492       .  S
C24         C287   1.492       .  S
C35          C36   1.401       .  A
C35          C40   1.404       .  A
C35         C259   1.491       .  S
C36          C37   1.404       .  A
C36          H41   1.081       .  S
C37          C38   1.409       .  A
C37         C244   1.498       .  S
C38          C39   1.412       .  A
C38          H42   1.082       .  S
C39          C40   1.407       .  A
C39         C115   1.486       .  S
C40          H43   1.083       .  S
C44          C45   1.405       .  A
C44          C49   1.400       .  A
C44         C315   1.485       .  S
C45          C46   1.408       .  A
C45          H50   1.083       .  S
C46          C47   1.412       .  A
C46         C116   1.487       .  S
C47          C48   1.407       .  A
C47          H51   1.083       .  S
C48          C49   1.401       .  A
C48         C300   1.491       .  S
C49          H52   1.084       .  S
N53          C58   1.355       .  A
N53          C57   1.355   1_455  A
N53          H85   1.035       .  S
N54          C62   1.353   1_556  A
N54         C403   1.353       .  A
N55          C60   1.354       .  A
N55          C59   1.355   1_455  A
N55          H86   1.034   1_455  S
N56          C64   1.351       .  A
N56         C405   1.351   1_554  A
C57          C65   1.387       .  A
C57          C73   1.418       .  A
C58          C74   1.421       .  A
C58          C66   1.387       .  A
C59          C67   1.388       .  A
C59          C76   1.420       .  A
C60          C75   1.418       .  A
C60          C68   1.387       .  A
C61         N396   1.353       .  A
C61          C73   1.415       .  A
C61          C69   1.386       .  A
C62          C76   1.418       .  A
C62          C70   1.387       .  A
C63         N398   1.351       .  A
C63          C71   1.387       .  A
C63          C74   1.414       .  A
C64          C72   1.386       .  A
C64          C75   1.414       .  A
C65          C66   1.376   1_655  A
C65          H77   1.082       .  S
C66          H78   1.082       .  S
C67          C68   1.370   1_655  A
C67          H79   1.080       .  S
C68          H80   1.082       .  S
C69         C412   1.370       .  A
C69          H81   1.082       .  S
C70         C411   1.370   1_554  A
C70          H82   1.082       .  S
C71         C414   1.371       .  A
C71          H83   1.082       .  S
C72         C413   1.371   1_554  A
C72          H84   1.082       .  S
C73         C203   1.490       .  S
C74         C147   1.492       .  S
C75         C132   1.490       .  S
C76         C188   1.492       .  S
C87          C88   1.399       .  A
C87          C92   1.406       .  A
C87         C160   1.484       .  S
C88          C89   1.401       .  A
C88          H93   1.084       .  S
C89          C90   1.405       .  A
C89         C119   1.484       .  S
C90          C91   1.408       .  A
C90          H94   1.083       .  S
C91          C92   1.413       .  A
C91         C118   1.487       .  S
C92          H95   1.083       .  S
C96          C97   1.406       .  A
C96         C101   1.402       .  A
C96         C216   1.494       .  S
C97          C98   1.412       .  A
C97         H102   1.083       .  S
C98          C99   1.409       .  A
C98         C117   1.486       .  S
C99         C100   1.407       .  A
C99         H103   1.082       .  S
C100        C101   1.403       .  A
C100        C175   1.495       .  S
C101        H104   1.084       .  S
O105       Cu113   2.010       .  S
O105        C115   1.278       .  A
O106       Cu113   2.010       .  S
O106        C116   1.278       .  A
O107       Cu113   2.023       .  S
O107        C117   1.281       .  A
O108       Cu113   2.023       .  S
O108        C118   1.281       .  A
O109       Cu114   2.012       .  S
O109        C118   1.277       .  A
O110       Cu114   2.007       .  S
O110        C117   1.277       .  A
O111       Cu114   2.023       .  S
O111        C116   1.281       .  A
O112       Cu114   2.018       .  S
O112        C115   1.280       .  A
Cu113      Cu114   2.368       .  S
C119        C120   1.415       .  A
C119        C124   1.405       .  A
C120        C121   1.404       .  A
C120        N125   1.438       .  S
C121        C122   1.400       .  A
C121        H126   1.084       .  S
C122        C123   1.407       .  A
C122        C127   1.474       .  S
C123        C124   1.405       .  A
C123        N128   1.438       .  S
C124        H129   1.083       .  S
N125        H145   1.046       .  S
N125        H146   1.045       .  S
C127        C130   1.400       .  A
C127        C134   1.409       .  A
N128        H143   1.046       .  S
N128        H144   1.044       .  S
C130        C131   1.404       .  A
C130        H135   1.084       .  S
C131        C132   1.411       .  A
C131        N136   1.438       .  S
C132        C133   1.404       .  A
C133        C134   1.404       .  A
C133        H137   1.084       .  S
C134        N138   1.438       .  S
N136        H139   1.046       .  S
N136        H140   1.045       .  S
N138        H141   1.046       .  S
N138        H142   1.044       .  S
C147        C148   1.418       .  A
C147        C152   1.403       .  A
C148        C149   1.403       .  A
C148        N153   1.438       .  S
C149        C150   1.403       .  A
C149        H154   1.084       .  S
C150        C151   1.411       .  A
C150        C155   1.486       .  S
C151        C152   1.405       .  A
C151        N156   1.438       .  S
C152        H157   1.084       .  S
N153        H173   1.043       .  S
N153        H174   1.046       .  S
C155        C158   1.401       .  A
C155        C162   1.412       .  A
N156        H171   1.046       .  S
N156        H172   1.045       .  S
C158        C159   1.402       .  A
C158        H163   1.084       .  S
C159        C160   1.411       .  A
C159        N164   1.438       .  S
C160        C161   1.405       .  A
C161        C162   1.412       .  A
C161        H165   1.084       .  S
C162        N166   1.437       .  S
N164        H167   1.045       .  S
N164        H168   1.046       .  S
N166        H169   1.045       .  S
N166        H170   1.046       .  S
C175        C176   1.416       .  A
C175        C180   1.408       .  A
C176        C177   1.410       .  A
C176        N181   1.437       .  S
C177        C178   1.402       .  A
C177        H182   1.084       .  S
C178        C179   1.408       .  A
C178        C183   1.480       .  S
C179        C180   1.402       .  A
C179        N184   1.440       .  S
C180        H185   1.083       .  S
N181        H201   1.046       .  S
N181        H202   1.046       .  S
C183        C186   1.402       .  A
C183        C190   1.409       .  A
N184        H199   1.046       .  S
N184        H200   1.043       .  S
C186        C187   1.402       .  A
C186        H191   1.084       .  S
C187        C188   1.419       .  A
C187        N192   1.439       .  S
C188        C189   1.404       .  A
C189        C190   1.404       .  A
C189        H193   1.084       .  S
C190        N194   1.439       .  S
N192        H195   1.046       .  S
N192        H196   1.043       .  S
N194        H197   1.046       .  S
N194        H198   1.043       .  S
C203        C204   1.409       .  A
C203        C208   1.403       .  A
C204        C205   1.405       .  A
C204        N209   1.438       .  S
C205        C206   1.405       .  A
C205        H210   1.084       .  S
C206        C207   1.413       .  A
C206        C211   1.490       .  S
C207        C208   1.409       .  A
C207        N212   1.437       .  S
C208        H213   1.084       .  S
N209        H229   1.045       .  S
N209        H230   1.046       .  S
C211        C214   1.406       .  A
C211        C218   1.410       .  A
N212        H227   1.046       .  S
N212        H228   1.045       .  S
C214        C215   1.412       .  A
C214        H219   1.083       .  S
C215        C216   1.415       .  A
C215        N220   1.437       .  S
C216        C217   1.406       .  A
C217        C218   1.402       .  A
C217        H221   1.084       .  S
C218        N222   1.438       .  S
N220        H223   1.045       .  S
N220        H224   1.046       .  S
N222        H225   1.045       .  S
N222        H226   1.046       .  S
C231        C232   1.409       .  A
C231        C236   1.404       .  A
C232        C233   1.403       .  A
C232        N237   1.432       .  S
C233        C234   1.403       .  A
C233        H238   1.084       .  S
C234        C235   1.412       .  A
C234        C239   1.481       .  S
C235        C236   1.407       .  A
C235        N240   1.439       .  S
C236        H241   1.084       .  S
N237        H257   1.046       .  S
N237        H258   1.045       .  S
C239        C242   1.402       .  A
C239        C246   1.409       .  A
N240        H255   1.046       .  S
N240        H256   1.042       .  S
C242        C243   1.406       .  A
C242        H247   1.084       .  S
C243        C244   1.414       .  A
C243        N248   1.432       .  S
C244        C245   1.410       .  A
C245        C246   1.404       .  A
C245        H249   1.083       .  S
C246        N250   1.440       .  S
N248        H251   1.047       .  S
N248        H252   1.044       .  S
N250        H253   1.046       .  S
N250        H254   1.042       .  S
C259        C260   1.417       .  A
C259        C264   1.407       .  A
C260        C261   1.404       .  A
C260        N265   1.438       .  S
C261        C262   1.399       .  A
C261        H266   1.084       .  S
C262        C263   1.408       .  A
C262        C267   1.476       .  S
C263        C264   1.406       .  A
C263        N268   1.438       .  S
C264        H269   1.083       .  S
N265        H285   1.045       .  S
N265        H286   1.045       .  S
C267        C270   1.402       .  A
C267        C274   1.410       .  A
N268        H283   1.045       .  S
N268        H284   1.044       .  S
C270        C271   1.406       .  A
C270        H275   1.084       .  S
C271        C272   1.411       .  A
C271        N276   1.437       .  S
C272        C273   1.403       .  A
C273        C274   1.403       .  A
C273        H277   1.084       .  S
C274        N278   1.439       .  S
N276        H279   1.045       .  S
N276        H280   1.046       .  S
N278        H281   1.046       .  S
N278        H282   1.043       .  S
C287        C288   1.418       .  A
C287        C292   1.404       .  A
C288        C289   1.402       .  A
C288        N293   1.438       .  S
C289        C290   1.402       .  A
C289        H294   1.084       .  S
C290        C291   1.410       .  A
C290        C295   1.480       .  S
C291        C292   1.405       .  A
C291        N296   1.439       .  S
C292        H297   1.084       .  S
N293        H313   1.044       .  S
N293        H314   1.045       .  S
C295        C298   1.402       .  A
C295        C302   1.409       .  A
N296        H311   1.046       .  S
N296        H312   1.043       .  S
C298        C299   1.409       .  A
C298        H303   1.084       .  S
C299        C300   1.414       .  A
C299        N304   1.437       .  S
C300        C301   1.407       .  A
C301        C302   1.404       .  A
C301        H305   1.084       .  S
C302        N306   1.439       .  S
N304        H307   1.045       .  S
N304        H308   1.046       .  S
N306        H309   1.046       .  S
N306        H310   1.043       .  S
C315        C316   1.415       .  A
C315        C320   1.404       .  A
C316        C317   1.405       .  A
C316        N321   1.438       .  S
C317        C318   1.401       .  A
C317        H322   1.084       .  S
C318        C319   1.408       .  A
C318        C323   1.480       .  S
C319        C320   1.406       .  A
C319        N324   1.437       .  S
C320        H325   1.083       .  S
N321        H341   1.046       .  S
N321        H342   1.045       .  S
C323        C326   1.402       .  A
C323        C330   1.408       .  A
N324        H339   1.046       .  S
N324        H340   1.045       .  S
C326        C327   1.401       .  A
C326        H331   1.084       .  S
C327        C328   1.416       .  A
C327        N332   1.438       .  S
C328        C329   1.403       .  A
C329        C330   1.405       .  A
C329        H333   1.084       .  S
C330        N334   1.437       .  S
N332        H335   1.045       .  S
N332        H336   1.043       .  S
N334        H337   1.046       .  S
N334        H338   1.045       .  S
N343        C348   1.352       .  A
N343        C347   1.354   1_545  A
N343        H375   1.039       .  S
N344        C352   1.351       .  A
N345        C350   1.356   1_565  A
N345        C349   1.355       .  A
N345        H376   1.037   1_565  S
N346        C354   1.352       .  A
C347        C355   1.387       .  A
C347        C363   1.414       .  A
C348        C364   1.415       .  A
C348        C356   1.387       .  A
C349        C357   1.386       .  A
C349        C366   1.419       .  A
C350        C365   1.420       .  A
C350        C358   1.388       .  A
C351        C363   1.411       .  A
C351        C359   1.385       .  A
C352        C366   1.413       .  A
C352        C360   1.387       .  A
C353        C361   1.385       .  A
C353        C364   1.414       .  A
C354        C362   1.388       .  A
C354        C365   1.416       .  A
C355        C356   1.374   1_565  A
C355        H367   1.082       .  S
C356        H368   1.082       .  S
C357        C358   1.372   1_565  A
C357        H369   1.082       .  S
C358        H370   1.081       .  S
C359        H371   1.082       .  S
C360        H372   1.082       .  S
C361        H373   1.082       .  S
C362        H374   1.082       .  S
C363        C670   1.486       .  S
C364        C614   1.488       .  S
C365        C573   1.492       .  S
C366        C629   1.492       .  S
C377        C378   1.401       .  A
C377        C382   1.404       .  A
C377        C601   1.491       .  S
C378        C379   1.404       .  A
C378        H383   1.081       .  S
C379        C380   1.409       .  A
C379        C586   1.498       .  S
C380        C381   1.412       .  A
C380        H384   1.082       .  S
C381        C382   1.407       .  A
C381        C457   1.486       .  S
C382        H385   1.083       .  S
C386        C387   1.405       .  A
C386        C391   1.400       .  A
C386        C657   1.485       .  S
C387        C388   1.408       .  A
C387        H392   1.083       .  S
C388        C389   1.412       .  A
C388        C458   1.487       .  S
C389        C390   1.407       .  A
C389        H393   1.083       .  S
C390        C391   1.401       .  A
C390        C642   1.491       .  S
C391        H394   1.084       .  S
N395        C400   1.355       .  A
N395        C399   1.355   1_455  A
N395        H427   1.035       .  S
N396        C404   1.353       .  A
N397        C402   1.354       .  A
N397        C401   1.355   1_455  A
N397        H428   1.034   1_455  S
N398        C406   1.351       .  A
C399        C407   1.387       .  A
C399        C415   1.418       .  A
C400        C416   1.421       .  A
C400        C408   1.387       .  A
C401        C409   1.388       .  A
C401        C418   1.420       .  A
C402        C417   1.418       .  A
C402        C410   1.387       .  A
C403        C415   1.415       .  A
C403        C411   1.386       .  A
C404        C418   1.418       .  A
C404        C412   1.387       .  A
C405        C413   1.387       .  A
C405        C416   1.414       .  A
C406        C414   1.386       .  A
C406        C417   1.414       .  A
C407        C408   1.376   1_655  A
C407        H419   1.082       .  S
C408        H420   1.082       .  S
C409        C410   1.370   1_655  A
C409        H421   1.080       .  S
C410        H422   1.082       .  S
C411        H423   1.082       .  S
C412        H424   1.082       .  S
C413        H425   1.082       .  S
C414        H426   1.082       .  S
C415        C545   1.490       .  S
C416        C489   1.492       .  S
C417        C474   1.490       .  S
C418        C530   1.492       .  S
C429        C430   1.399       .  A
C429        C434   1.406       .  A
C429        C502   1.484       .  S
C430        C431   1.401       .  A
C430        H435   1.084       .  S
C431        C432   1.405       .  A
C431        C461   1.484       .  S
C432        C433   1.408       .  A
C432        H436   1.083       .  S
C433        C434   1.413       .  A
C433        C460   1.487       .  S
C434        H437   1.083       .  S
C438        C439   1.406       .  A
C438        C443   1.402       .  A
C438        C558   1.494       .  S
C439        C440   1.412       .  A
C439        H444   1.083       .  S
C440        C441   1.409       .  A
C440        C459   1.486       .  S
C441        C442   1.407       .  A
C441        H445   1.082       .  S
C442        C443   1.403       .  A
C442        C517   1.495       .  S
C443        H446   1.084       .  S
O447       Cu455   2.010       .  S
O447        C457   1.278       .  A
O448       Cu455   2.010       .  S
O448        C458   1.278       .  A
O449       Cu455   2.023       .  S
O449        C459   1.281       .  A
O450       Cu455   2.023       .  S
O450        C460   1.281       .  A
O451       Cu456   2.012       .  S
O451        C460   1.277       .  A
O452       Cu456   2.007       .  S
O452        C459   1.277       .  A
O453       Cu456   2.023       .  S
O453        C458   1.281       .  A
O454       Cu456   2.018       .  S
O454        C457   1.280       .  A
Cu455      Cu456   2.368       .  S
C461        C462   1.415       .  A
C461        C466   1.405       .  A
C462        C463   1.404       .  A
C462        N467   1.438       .  S
C463        C464   1.400       .  A
C463        H468   1.084       .  S
C464        C465   1.407       .  A
C464        C469   1.474       .  S
C465        C466   1.405       .  A
C465        N470   1.438       .  S
C466        H471   1.083       .  S
N467        H487   1.046       .  S
N467        H488   1.045       .  S
C469        C472   1.400       .  A
C469        C476   1.409       .  A
N470        H485   1.046       .  S
N470        H486   1.044       .  S
C472        C473   1.404       .  A
C472        H477   1.084       .  S
C473        C474   1.411       .  A
C473        N478   1.438       .  S
C474        C475   1.404       .  A
C475        C476   1.404       .  A
C475        H479   1.084       .  S
C476        N480   1.438       .  S
N478        H481   1.046       .  S
N478        H482   1.045       .  S
N480        H483   1.046       .  S
N480        H484   1.044       .  S
C489        C490   1.418       .  A
C489        C494   1.403       .  A
C490        C491   1.403       .  A
C490        N495   1.438       .  S
C491        C492   1.403       .  A
C491        H496   1.084       .  S
C492        C493   1.411       .  A
C492        C497   1.486       .  S
C493        C494   1.405       .  A
C493        N498   1.438       .  S
C494        H499   1.084       .  S
N495        H515   1.043       .  S
N495        H516   1.046       .  S
C497        C500   1.401       .  A
C497        C504   1.412       .  A
N498        H513   1.046       .  S
N498        H514   1.045       .  S
C500        C501   1.402       .  A
C500        H505   1.084       .  S
C501        C502   1.411       .  A
C501        N506   1.438       .  S
C502        C503   1.405       .  A
C503        C504   1.412       .  A
C503        H507   1.084       .  S
C504        N508   1.437       .  S
N506        H509   1.045       .  S
N506        H510   1.046       .  S
N508        H511   1.045       .  S
N508        H512   1.046       .  S
C517        C518   1.416       .  A
C517        C522   1.408       .  A
C518        C519   1.410       .  A
C518        N523   1.437       .  S
C519        C520   1.402       .  A
C519        H524   1.084       .  S
C520        C521   1.408       .  A
C520        C525   1.480       .  S
C521        C522   1.402       .  A
C521        N526   1.440       .  S
C522        H527   1.083       .  S
N523        H543   1.045       .  S
N523        H544   1.046       .  S
C525        C528   1.402       .  A
C525        C532   1.409       .  A
N526        H541   1.046       .  S
N526        H542   1.043       .  S
C528        C529   1.402       .  A
C528        H533   1.084       .  S
C529        C530   1.419       .  A
C529        N534   1.439       .  S
C530        C531   1.404       .  A
C531        C532   1.404       .  A
C531        H535   1.084       .  S
C532        N536   1.439       .  S
N534        H537   1.046       .  S
N534        H538   1.043       .  S
N536        H539   1.046       .  S
N536        H540   1.043       .  S
C545        C546   1.409       .  A
C545        C550   1.403       .  A
C546        C547   1.405       .  A
C546        N551   1.438       .  S
C547        C548   1.405       .  A
C547        H552   1.084       .  S
C548        C549   1.413       .  A
C548        C553   1.490       .  S
C549        C550   1.409       .  A
C549        N554   1.437       .  S
C550        H555   1.084       .  S
N551        H571   1.045       .  S
N551        H572   1.046       .  S
C553        C556   1.406       .  A
C553        C560   1.410       .  A
N554        H569   1.046       .  S
N554        H570   1.045       .  S
C556        C557   1.412       .  A
C556        H561   1.083       .  S
C557        C558   1.415       .  A
C557        N562   1.437       .  S
C558        C559   1.406       .  A
C559        C560   1.402       .  A
C559        H563   1.084       .  S
C560        N564   1.438       .  S
N562        H565   1.045       .  S
N562        H566   1.046       .  S
N564        H567   1.045       .  S
N564        H568   1.046       .  S
C573        C574   1.409       .  A
C573        C578   1.404       .  A
C574        C575   1.403       .  A
C574        N579   1.432       .  S
C575        C576   1.403       .  A
C575        H580   1.084       .  S
C576        C577   1.412       .  A
C576        C581   1.481       .  S
C577        C578   1.407       .  A
C577        N582   1.439       .  S
C578        H583   1.084       .  S
N579        H599   1.046       .  S
N579        H600   1.045       .  S
C581        C584   1.402       .  A
C581        C588   1.409       .  A
N582        H597   1.046       .  S
N582        H598   1.042       .  S
C584        C585   1.406       .  A
C584        H589   1.084       .  S
C585        C586   1.414       .  A
C585        N590   1.432       .  S
C586        C587   1.410       .  A
C587        C588   1.404       .  A
C587        H591   1.083       .  S
C588        N592   1.440       .  S
N590        H593   1.047       .  S
N590        H594   1.044       .  S
N592        H595   1.046       .  S
N592        H596   1.042       .  S
C601        C602   1.417       .  A
C601        C606   1.407       .  A
C602        C603   1.404       .  A
C602        N607   1.438       .  S
C603        C604   1.399       .  A
C603        H608   1.084       .  S
C604        C605   1.408       .  A
C604        C609   1.476       .  S
C605        C606   1.406       .  A
C605        N610   1.438       .  S
C606        H611   1.083       .  S
N607        H627   1.045       .  S
N607        H628   1.045       .  S
C609        C612   1.402       .  A
C609        C616   1.410       .  A
N610        H625   1.045       .  S
N610        H626   1.044       .  S
C612        C613   1.406       .  A
C612        H617   1.084       .  S
C613        C614   1.411       .  A
C613        N618   1.437       .  S
C614        C615   1.403       .  A
C615        C616   1.403       .  A
C615        H619   1.084       .  S
C616        N620   1.439       .  S
N618        H621   1.045       .  S
N618        H622   1.046       .  S
N620        H623   1.046       .  S
N620        H624   1.043       .  S
C629        C630   1.418       .  A
C629        C634   1.404       .  A
C630        C631   1.402       .  A
C630        N635   1.438       .  S
C631        C632   1.402       .  A
C631        H636   1.084       .  S
C632        C633   1.410       .  A
C632        C637   1.480       .  S
C633        C634   1.405       .  A
C633        N638   1.439       .  S
C634        H639   1.084       .  S
N635        H655   1.044       .  S
N635        H656   1.045       .  S
C637        C640   1.402       .  A
C637        C644   1.409       .  A
N638        H653   1.046       .  S
N638        H654   1.043       .  S
C640        C641   1.409       .  A
C640        H645   1.084       .  S
C641        C642   1.414       .  A
C641        N646   1.437       .  S
C642        C643   1.407       .  A
C643        C644   1.404       .  A
C643        H647   1.084       .  S
C644        N648   1.439       .  S
N646        H649   1.045       .  S
N646        H650   1.046       .  S
N648        H651   1.046       .  S
N648        H652   1.043       .  S
C657        C658   1.415       .  A
C657        C662   1.404       .  A
C658        C659   1.405       .  A
C658        N663   1.438       .  S
C659        C660   1.401       .  A
C659        H664   1.084       .  S
C660        C661   1.408       .  A
C660        C665   1.480       .  S
C661        C662   1.406       .  A
C661        N666   1.437       .  S
C662        H667   1.083       .  S
N663        H683   1.046       .  S
N663        H684   1.045       .  S
C665        C668   1.402       .  A
C665        C672   1.408       .  A
N666        H681   1.046       .  S
N666        H682   1.045       .  S
C668        C669   1.401       .  A
C668        H673   1.084       .  S
C669        C670   1.416       .  A
C669        N674   1.438       .  S
C670        C671   1.403       .  A
C671        C672   1.405       .  A
C671        H675   1.084       .  S
C672        N676   1.437       .  S
N674        H677   1.045       .  S
N674        H678   1.043       .  S
N676        H679   1.046       .  S
N676        H680   1.045       .  S
