geometry optimzed in LAMMPS
_audit_creation_date              2020-11-30 
_audit_creation_method            'lammps2cif' 
_symmetry_space_group_name_H-M    'P1' 
_symmetry_Int_Tables_number       1 
_symmetry_cell_setting            triclinic 
loop_ 
_symmetry_equiv_pos_as_xyz 
  x,y,z 
_cell_length_a                    44.70721768 
_cell_length_b                    29.250779523336178 
_cell_length_c                    43.32049659524779 
_cell_angle_alpha                 90.8040507468616 
_cell_angle_beta                  89.96972799089004 
_cell_angle_gamma                 90.2259813605128 
loop_ 
_atom_site_label 
_atom_site_type_symbol 
_atom_site_fract_x 
_atom_site_fract_y 
_atom_site_fract_z 
_atom_site_charge 
O1          O  0.18686480  0.44041907  0.31479968    -0.75500
O2          O  0.21034228  0.38440271  0.28660982    -0.54400
C3          C  0.19197017  0.39837438  0.30762177     0.78200
O4          O  0.19220294  0.58802865  0.18835995    -0.60100
O5          O  0.21555793  0.64279818  0.21785492    -0.53100
C6          C  0.19748760  0.62976790  0.19625085     0.70300
O7          O  0.18775683  0.43698915  0.18920853    -0.74600
O8          O  0.21111237  0.38229154  0.21745094    -0.55200
C9          C  0.19247673  0.39529710  0.19658520     0.76300
O10         O  0.18655580  0.59380006  0.30982495    -0.59800
O11         O  0.21561874  0.64655679  0.28545967    -0.52900
C12         C  0.19417248  0.63532840  0.30376344     0.72900
Zr13       Zr  0.20205986  0.51553738  0.29687862     2.54700
O14         O  0.14781887  0.51353182  0.29227806    -0.80400
O15         O  0.20048079  0.52153504  0.35301320    -0.93800
Zr16       Zr  0.20526963  0.51213423  0.20519792     2.64700
O17         O  0.15102781  0.51636923  0.20136854    -0.98700
O18         O  0.21333236  0.50706390  0.14963410    -0.80800
O19         O  0.20177854  0.46930748  0.25123420    -0.84100
O20         O  0.20351385  0.55798795  0.25078802    -2.18900
O21         O  0.30584751  0.58860912  0.31387717    -0.67500
O22         O  0.28265493  0.64388608  0.28634754    -0.52100
C23         C  0.30163193  0.63060521  0.30671216     0.71200
O24         O  0.30889310  0.43146555  0.19853242    -0.60400
O25         O  0.28008571  0.37737457  0.22141594    -0.52400
C26         C  0.30218555  0.38954070  0.20424615     0.73000
O27         O  0.30862410  0.58605283  0.19202321    -0.71800
O28         O  0.28163767  0.64161277  0.21693378    -0.50500
C29         C  0.30158899  0.62809545  0.19742208     0.74400
O30         O  0.30617762  0.43479144  0.31105621    -0.67200
O31         O  0.27879051  0.38009781  0.28586535    -0.54400
C32         C  0.29985993  0.39282641  0.30441718     0.72800
Zr33       Zr  0.29014620  0.51188878  0.29888678     2.77500
O34         O  0.34459458  0.50935933  0.29977850    -0.97900
O35         O  0.28763796  0.51032798  0.35498239    -0.78700
Zr36       Zr  0.29279986  0.50985343  0.20795465     2.70100
O37         O  0.34730921  0.51084002  0.20797075    -0.80000
O38         O  0.29113801  0.50416025  0.15181052    -0.99100
Zr39       Zr  0.24546146  0.42289363  0.25254866     2.21500
Zr40       Zr  0.24873648  0.60155231  0.25230377     2.11100
O41         O  0.29296708  0.55577084  0.25341147    -2.47800
O42         O  0.29078524  0.46632926  0.25350280    -0.79800
O43         O  0.24696601  0.55878943  0.29886708    -0.72000
O44         O  0.24829041  0.46552341  0.20602374    -2.32900
O45         O  0.24530784  0.46865477  0.29883197    -2.29100
O46         O  0.24965914  0.55641528  0.20596914    -0.73700
H47         H  0.18624120  0.57767692  0.24999507     0.78300
H48         H  0.24853731  0.44528725  0.18822346     0.79400
H49         H  0.31075490  0.57462395  0.25371707     0.81600
H50         H  0.24490116  0.44976406  0.31692870     0.79200
H51         H  0.21757311  0.53877830  0.14320141     0.42200
H52         H  0.31222533  0.49953435  0.14554974     0.41200
H53         H  0.35317232  0.49303333  0.18934328     0.40900
H54         H  0.35122000  0.53719009  0.28892982     0.38800
H55         H  0.27429570  0.53603920  0.36066959     0.41900
H56         H  0.21310965  0.49609681  0.36024933     0.36700
H57         H  0.14049701  0.51090867  0.31375682     0.42800
H58         H  0.14635453  0.50526472  0.18020962     0.39200
H59         H  0.35000818  0.51490651  0.32166970     0.44200
H60         H  0.17983795  0.51251179  0.35863290     0.42900
H61         H  0.14353921  0.49200726  0.21504441     0.43000
H62         H  0.28129807  0.47446161  0.14722211     0.43400
O63         O  0.43654484  0.43185914  0.44031605    -0.75500
O64         O  0.46380516  0.37765227  0.46525800    -0.54400
C65         C  0.44356826  0.39004375  0.44606726     0.78200
O66         O  0.05952517  0.58678056  0.44517907    -0.60100
O67         O  0.03256893  0.64140349  0.47055913    -0.53100
C68         C  0.05320397  0.62867900  0.45154692     0.70300
O69         O  0.05752980  0.43377951  0.43936305    -0.74600
O70         O  0.03305995  0.37939218  0.46722479    -0.55200
C71         C  0.05150015  0.39205459  0.44616236     0.76300
O72         O  0.43494012  0.58837419  0.44510309    -0.59800
O73         O  0.46387408  0.64167988  0.47004156    -0.52900
C74         C  0.44257420  0.63006419  0.45160342     0.72900
Zr75       Zr  0.45114387  0.50980462  0.45596869     2.54700
O76         O  0.45347684  0.51587831  0.40002428    -0.80400
O77         O  0.39666464  0.50841478  0.45529089    -0.93800
Zr78       Zr  0.04423396  0.50983862  0.45827957     2.64700
O79         O  0.04875186  0.51179910  0.40227277    -0.98700
O80         O  0.09809828  0.50737494  0.46636777    -0.80800
O81         O  0.49515225  0.46432174  0.45498925    -0.84100
O82         O  0.49565596  0.55399984  0.45611516    -2.18900
O83         O  0.43481019  0.58190159  0.05828409    -0.67500
O84         O  0.46377887  0.63556998  0.03463061    -0.52100
C85         C  0.44219068  0.62348409  0.05245411     0.71200
O86         O  0.05106991  0.42893392  0.06424116    -0.60400
O87         O  0.02905261  0.37516355  0.03290164    -0.52400
C88         C  0.04593673  0.38735576  0.05566638     0.73000
O89         O  0.05639221  0.58189614  0.06227056    -0.71800
O90         O  0.03107441  0.63619633  0.03553612    -0.50500
C91         C  0.05067685  0.62360594  0.05537709     0.74400
O92         O  0.43754694  0.42783787  0.05876673    -0.67200
O93         O  0.46473663  0.37384717  0.03272849    -0.54400
C94         C  0.44396658  0.38609707  0.05165107     0.72800
Zr95       Zr  0.45317635  0.50538113  0.04586508     2.77500
O96         O  0.45479178  0.50523192  0.10207833    -0.97900
O97         O  0.39880443  0.50469733  0.04397086    -0.78700
Zr98       Zr  0.04047452  0.50556652  0.04603305     2.70100
O99         O  0.04456583  0.50907100  0.10204096    -0.80000
O100        O  0.09447332  0.50050602  0.03967385    -0.99100
Zr101      Zr  0.49865768  0.41725519  0.00037667     2.21500
Zr102      Zr  0.49876180  0.59397725  0.00189529     2.11100
O103        O  0.49727881  0.55077845  0.04825030    -2.47800
O104        O  0.49730811  0.46086423  0.04718569    -0.79800
O105        O  0.45388470  0.54987768  0.00063905    -0.72000
O106        O  0.04109864  0.46204700  0.99947376    -2.32900
O107        O  0.45358676  0.46107651  0.99974661    -2.29100
O108        O  0.04102732  0.55075094  0.00106574    -0.73700
H109        H  0.49589687  0.57391686  0.43849752     0.78300
H110        H  0.05853037  0.44267239  0.99910864     0.79400
H111        H  0.49673316  0.57057662  0.06629194     0.81600
H112        H  0.43613535  0.44152918  0.99929619     0.79200
H113        H  0.10681742  0.51560607  0.44617746     0.42200
H114        H  0.10098064  0.53197151  0.03477425     0.41200
H115        H  0.02521945  0.49696945  0.10954594     0.40900
H116        H  0.45709073  0.53776719  0.10826894     0.38800
H117        H  0.39399572  0.50846546  0.02184526     0.41900
H118        H  0.39100153  0.48299390  0.46899520     0.36700
H119        H  0.43959463  0.49199934  0.39213677     0.42800
H120        H  0.03647594  0.53816231  0.39595636     0.39200
H121        H  0.43416658  0.49713012  0.10836623     0.44200
H122        H  0.39136106  0.49734630  0.43428474     0.42900
H123        H  0.06965678  0.52148152  0.39841571     0.43000
H124        H  0.10215060  0.49534331  0.06077082     0.43400
C125        C  0.36876424  0.25880905  0.37634210    -0.02700
O126        O  0.30855505  0.08982044  0.44758082    -0.75500
O127        O  0.27837743  0.14281379  0.47086028    -0.54400
C128        C  0.30027482  0.13150356  0.45313290     0.78200
O129        O  0.18552845  0.93263820  0.44328421    -0.60100
O130        O  0.21052454  0.87854374  0.46997165    -0.53100
C131        C  0.19030336  0.89078790  0.45064647     0.70300
O132        O  0.18633068  0.08516550  0.44018562    -0.74600
O133        O  0.21208354  0.14008238  0.46727296    -0.55200
C134        C  0.19234363  0.12699024  0.44733439     0.76300
O135        O  0.30944370  0.93273227  0.44882443    -0.59800
O136        O  0.27866778  0.87942196  0.47042431    -0.52900
C137        C  0.30118187  0.89108235  0.45384352     0.72900
Zr138      Zr  0.29238841  0.01122103  0.45999275     2.54700
O139        O  0.29243155  0.01008377  0.40382109    -0.80400
O140        O  0.34685399  0.01107102  0.46272799    -0.93800
Zr141      Zr  0.20401198  0.00961768  0.45386189     2.64700
O142        O  0.21401125  0.00604765  0.39862743    -0.98700
O143        O  0.15043813  0.01211012  0.44417220    -0.80800
O144        O  0.24799104  0.05522872  0.45613697    -0.84100
O145        O  0.24830982  0.96559548  0.45595200    -2.18900
O146        O  0.30345015  0.93582904  0.06279926    -0.67500
O147        O  0.27931328  0.88117170  0.03387151    -0.52100
C148        C  0.29797250  0.89397102  0.05488887     0.71200
O149        O  0.18243811  0.08543697  0.05894737    -0.60400
O150        O  0.21032356  0.14006076  0.03490656    -0.52400
C151        C  0.18942827  0.12709103  0.05332588     0.73000
O152        O  0.18101327  0.93315036  0.05538005    -0.71800
O153        O  0.21211668  0.88016854  0.03358383    -0.50500
C154        C  0.18956035  0.89181127  0.05032031     0.74400
O155        O  0.30359782  0.09097616  0.06135799    -0.67200
O156        O  0.27625353  0.14418302  0.03573859    -0.54400
C157        C  0.29685502  0.13260999  0.05483767     0.72800
Zr158      Zr  0.28793562  0.01267342  0.04792864     2.77500
O159        O  0.28453878  0.01717345  0.10397228    -0.97900
O160        O  0.34237350  0.01315145  0.04904582    -0.78700
Zr161      Zr  0.19930765  0.00970357  0.04427185     2.70100
O162        O  0.20102663  0.00756623  0.10038664    -0.80000
O163        O  0.14478243  0.01023017  0.04304341    -0.99100
Zr164      Zr  0.24464362  0.09912994  0.00096546     2.21500
Zr165      Zr  0.24564586  0.92253553  0.00048621     2.11100
O166        O  0.24395881  0.96665076  0.04714799    -2.47800
O167        O  0.24313832  0.05590626  0.04720573    -0.79800
O168        O  0.29040276  0.96730871  0.00215830    -0.72000
O169        O  0.20021338  0.05383903  0.99888204    -2.32900
O170        O  0.28976639  0.05562984  0.00209424    -2.29100
O171        O  0.20070497  0.96542524  0.99830330    -0.73700
H172        H  0.24938656  0.94538228  0.43815893     0.78300
H173        H  0.18256838  0.07271062  0.99844841     0.79400
H174        H  0.24338346  0.94719876  0.06499696     0.81600
H175        H  0.30711221  0.07539406  0.00274681     0.79200
H176        H  0.14144207  0.01801197  0.46472897     0.42200
H177        H  0.13947349  0.03775407  0.03123085     0.41200
H178        H  0.18206142  0.99253525  0.10641355     0.40900
H179        H  0.26628513  0.99957916  0.10911034     0.38800
H180        H  0.34833723  0.01369576  0.02703613     0.41900
H181        H  0.35176835  0.98518453  0.47628500     0.36700
H182        H  0.28198714  0.03849986  0.39804200     0.42800
H183        H  0.21663650  0.97311209  0.39383019     0.39200
H184        H  0.30125354  0.99820690  0.11144508     0.44200
H185        H  0.35203688  0.03858548  0.47521711     0.42900
H186        H  0.19468486  0.01393154  0.38894472     0.43000
H187        H  0.13925622  0.98445080  0.02910187     0.43400
C188        C  0.11752942  0.76246406  0.37479998    -0.02700
O189        O  0.43683861  0.08638330  0.18930453    -0.75500
O190        O  0.46165396  0.14087388  0.21740903    -0.54400
C191        C  0.44160216  0.12809473  0.19759839     0.78200
O192        O  0.43562431  0.93520919  0.30767661    -0.60100
O193        O  0.45926740  0.87827089  0.28143850    -0.53100
C194        C  0.44027763  0.89276894  0.30166738     0.70300
O195        O  0.43380005  0.08899830  0.30509673    -0.74600
O196        O  0.46211819  0.14360756  0.28219569    -0.55200
C197        C  0.44043016  0.13103553  0.29976716     0.76300
O198        O  0.43985681  0.93452950  0.18203668    -0.59800
O199        O  0.46008408  0.87990893  0.21273595    -0.52900
C200        C  0.44354139  0.89282061  0.19016480     0.72900
Zr201      Zr  0.45340966  0.01025938  0.20174385     2.54700
O202        O  0.39909320  0.00791240  0.20600176    -0.80400
O203        O  0.45400352  0.01708135  0.14576290    -0.93800
Zr204      Zr  0.44988012  0.01152884  0.29283136     2.64700
O205        O  0.39540156  0.00976058  0.29221247    -0.98700
O206        O  0.45078588  0.01633520  0.34898371    -0.80800
O207        O  0.45157523  0.05530039  0.24753183    -0.84100
O208        O  0.44964483  0.96625850  0.24694616    -2.18900
O209        O  0.05741434  0.93108278  0.19046988    -0.67500
O210        O  0.02834780  0.87728367  0.21390656    -0.52100
C211        C  0.04977727  0.88945105  0.19581068     0.71200
O212        O  0.05770178  0.08416958  0.30907136    -0.60400
O213        O  0.03098359  0.13912656  0.28418437    -0.52400
C214        C  0.05144581  0.12608674  0.30296097     0.73000
O215        O  0.05201788  0.92838774  0.30944357    -0.71800
O216        O  0.02465872  0.87526206  0.28239333    -0.50500
C217        C  0.04462002  0.88680930  0.30233802     0.74400
O218        O  0.05998401  0.08441040  0.19247262    -0.67200
O219        O  0.03095156  0.13880431  0.21609178    -0.54400
C220        C  0.05232769  0.12608292  0.19803491     0.72800
Zr221      Zr  0.04239256  0.00816299  0.20568504     2.77500
O222        O  0.09626839  0.00821259  0.21426190    -0.97900
O223        O  0.04759013  0.00753408  0.14974040    -0.78700
Zr224      Zr  0.03898483  0.00736491  0.29637209     2.70100
O225        O  0.09331284  0.00409771  0.29965384    -0.80000
O226        O  0.03481671  0.00819327  0.35241157    -0.99100
Zr227      Zr  0.99687757  0.09836644  0.24993147     2.21500
Zr228      Zr  0.49351511  0.92031887  0.24823100     2.11100
O229        O  0.04032546  0.96270254  0.25038582    -2.47800
O230        O  0.04110769  0.05284259  0.25153941    -0.79800
O231        O  0.49705715  0.96462790  0.20246427    -0.72000
O232        O  0.99561900  0.05418328  0.29605554    -2.32900
O233        O  0.99862380  0.05406542  0.20303936    -2.29100
O234        O  0.49259439  0.96417352  0.29514929    -0.73700
H235        H  0.43179673  0.94753447  0.24611310     0.78300
H236        H  0.99533346  0.07371503  0.31422062     0.79400
H237        H  0.05738166  0.94255905  0.25076107     0.81600
H238        H  0.99934600  0.07354092  0.18523259     0.79200
H239        H  0.43158967  0.00260113  0.35557197     0.42200
H240        H  0.02279711  0.98066262  0.35715711     0.41200
H241        H  0.09918794  0.97989365  0.28466676     0.40900
H242        H  0.09926168  0.02802093  0.23273164     0.38800
H243        H  0.06818160  0.01877146  0.14599874     0.41900
H244        H  0.43821453  0.99594871  0.13815682     0.36700
H245        H  0.39228448  0.99001496  0.18774267     0.42800
H246        H  0.38942553  0.01884466  0.31343434     0.39200
H247        H  0.10098873  0.97705042  0.22139141     0.44200
H248        H  0.47301361  0.00257898  0.13927684     0.42900
H249        H  0.38956700  0.03594732  0.27931586     0.43000
H250        H  0.05519512  0.00079812  0.35970919     0.43400
C251        C  0.36978378  0.75825776  0.12143835    -0.02700
C252        C  0.12064737  0.26047412  0.12622625    -0.02700
C253        C  0.37203514  0.26197682  0.12644573    -0.02700
C254        C  0.12430968  0.75747809  0.12500562    -0.02700
C255        C  0.12370603  0.25942001  0.37493557    -0.02700
C256        C  0.37359237  0.76353142  0.38065261    -0.02700
C257        C  0.09989808  0.16343215  0.31537788    -0.26500
C258        C  0.06894358  0.16173439  0.31932882    -0.14600
C259        C  0.05546802  0.19134120  0.34094494     0.36000
C260        C  0.07313036  0.22137278  0.35857993    -0.26000
C261        C  0.10457541  0.22529173  0.35438027    -0.15200
C262        C  0.11782077  0.19398244  0.33245129     0.37100
N263        N  0.14937988  0.19070077  0.32720728    -0.89500
H264        H  0.11044971  0.13990506  0.29919671     0.18200
H265        H  0.06156889  0.24023112  0.37646643     0.18200
N266        N  0.02385632  0.19034657  0.34641688    -0.88500
H267        H  0.15961940  0.17659510  0.34641468     0.35600
H268        H  0.15854916  0.22247930  0.32211889     0.40700
H269        H  0.01773242  0.15727738  0.35282872     0.40300
H270        H  0.01295646  0.19802950  0.32581870     0.35200
C271        C  0.09975096  0.16576831  0.18521028    -0.26500
C272        C  0.06882962  0.16182890  0.18150436    -0.14600
C273        C  0.05407235  0.19005165  0.16054459     0.36000
C274        C  0.07057256  0.22217370  0.14367820    -0.26000
C275        C  0.10191210  0.22790162  0.14754225    -0.15200
C276        C  0.11632529  0.19810914  0.16867902     0.37100
N277        N  0.14803530  0.19999499  0.17318521    -0.89500
H278        H  0.11121550  0.14335859  0.20100054     0.18200
H279        H  0.05854466  0.24071460  0.12635346     0.18200
N280        N  0.02241870  0.18468775  0.15557823    -0.88500
H281        H  0.15687881  0.16792767  0.16748669     0.35600
H282        H  0.15221424  0.20636412  0.19660593     0.40700
H283        H  0.01881836  0.15220533  0.14585553     0.40300
H284        H  0.01468277  0.20825464  0.13953923     0.35200
C285        C  0.42696898  0.81206690  0.31685047    -0.26500
C286        C  0.42229550  0.85944178  0.31983740    -0.14600
C287        C  0.39996223  0.87478588  0.34055228     0.36000
C288        C  0.38456892  0.84375760  0.35861438    -0.26000
C289        C  0.39070864  0.79639737  0.35831592    -0.15200
C290        C  0.41111701  0.78060727  0.33524966     0.37100
N291        N  0.41619806  0.73274611  0.33048380    -0.89500
H292        H  0.44317902  0.79916463  0.30033408     0.18200
H293        H  0.36703285  0.85846096  0.37255272     0.18200
N294        N  0.39225481  0.92221213  0.34360466    -0.88500
H295        H  0.43905653  0.72635189  0.33281986     0.35600
H296        H  0.41021649  0.72444745  0.30775286     0.40700
H297        H  0.39546297  0.93234360  0.36662240     0.40300
H298        H  0.36957286  0.92585583  0.33832698     0.35200
C299        C  0.09895463  0.85763992  0.18064347    -0.26500
C300        C  0.06781079  0.85364370  0.18018435    -0.14600
C301        C  0.05468937  0.81861258  0.16248756     0.36000
C302        C  0.07283373  0.78870727  0.14512963    -0.26000
C303        C  0.10471676  0.79109464  0.14560915    -0.15200
C304        C  0.11740165  0.82804618  0.16361685     0.37100
N305        N  0.14865782  0.83919709  0.16401965    -0.89500
H306        H  0.10921248  0.88542096  0.19372653     0.18200
H307        H  0.06096820  0.76479295  0.13047301     0.18200
N308        N  0.02276922  0.81454573  0.16083990    -0.88500
H309        H  0.15488645  0.85325222  0.14298995     0.35600
H310        H  0.16164814  0.81088262  0.16911518     0.40700
H311        H  0.01634698  0.81764915  0.13775918     0.40300
H312        H  0.01682133  0.78176996  0.16803816     0.35200
C313        C  0.40673125  0.82952001  0.18933678    -0.26500
C314        C  0.42628370  0.85761857  0.17303269    -0.14600
C315        C  0.42632172  0.85533384  0.14066574     0.36000
C316        C  0.40820077  0.82307338  0.12526666    -0.26000
C317        C  0.38918657  0.79256164  0.14130654    -0.15200
C318        C  0.38705441  0.79929487  0.17402375     0.37100
N319        N  0.36352761  0.77944556  0.19188981    -0.89500
H320        H  0.40510408  0.83350320  0.21420735     0.18200
H321        H  0.40918822  0.82152616  0.10029670     0.18200
N322        N  0.44489989  0.88559262  0.12329935    -0.88500
H323        H  0.35078770  0.80590301  0.20157207     0.35600
H324        H  0.37313628  0.76129495  0.20996798     0.40700
H325        H  0.43113499  0.90429047  0.10864999     0.40300
H326        H  0.45923035  0.86575269  0.10958059     0.35200
C327        C  0.43122033  0.20900838  0.18231203    -0.26500
C328        C  0.42224422  0.16311633  0.18296064    -0.14600
C329        C  0.39436988  0.15108005  0.16960931     0.36000
C330        C  0.37844525  0.18349997  0.15273346    -0.26000
C331        C  0.38945892  0.22824326  0.14789316    -0.15200
C332        C  0.41466910  0.24170988  0.16605596     0.37100
N333        N  0.42409008  0.28837598  0.16782484    -0.89500
H334        H  0.45149238  0.21969499  0.19411135     0.18200
H335        H  0.35684341  0.17329320  0.14379314     0.18200
N336        N  0.38185833  0.10614082  0.17364881    -0.88500
H337        H  0.44643279  0.29051403  0.16087428     0.35600
H338        H  0.42304637  0.29891062  0.19096555     0.40700
H339        H  0.36151690  0.10252977  0.16194599     0.40300
H340        H  0.37710097  0.10258141  0.19713061     0.35200
C341        C  0.09297060  0.85380849  0.31669846    -0.26500
C342        C  0.06184407  0.85014475  0.31714643    -0.14600
C343        C  0.04849802  0.81238124  0.33186219     0.36000
C344        C  0.06647491  0.78204481  0.34847991    -0.26000
C345        C  0.09764341  0.78934064  0.35176677    -0.15200
C346        C  0.11092009  0.82350489  0.33300937     0.37100
N347        N  0.14268584  0.82998846  0.33233566    -0.89500
H348        H  0.10355150  0.88135231  0.30417808     0.18200
H349        H  0.05562340  0.75334177  0.35926577     0.18200
N350        N  0.01679602  0.80497368  0.33138615    -0.88500
H351        H  0.14752214  0.86328947  0.33994051     0.35600
H352        H  0.14981241  0.82672209  0.30942428     0.40700
H353        H  0.01000783  0.80022581  0.30848528     0.40300
H354        H  0.00629739  0.83413082  0.34038302     0.35200
C355        C  0.36321459  0.19867047  0.08691807    -0.26500
C356        C  0.34990076  0.23452698  0.10443130    -0.14600
C357        C  0.31829095  0.24122834  0.09963703     0.36000
C358        C  0.30158290  0.20782707  0.08323976    -0.26000
C359        C  0.31509765  0.16925643  0.06983656    -0.15200
C360        C  0.34640870  0.16587291  0.07052542     0.37100
N361        N  0.36113085  0.12871297  0.05468676    -0.89500
H362        H  0.38719349  0.19428213  0.08776576     0.18200
H363        H  0.27762427  0.21222406  0.08088471     0.18200
N364        N  0.30217055  0.28197448  0.10802692    -0.88500
H365        H  0.38430322  0.13070046  0.05770746     0.35600
H366        H  0.35714874  0.13229935  0.03106194     0.40700
H367        H  0.31560862  0.30964703  0.11399263     0.40300
H368        H  0.28755961  0.27452247  0.12613505     0.35200
C369        C  0.12569201  0.19234310  0.08978965    -0.26500
C370        C  0.14071762  0.22664357  0.10732247    -0.14600
C371        C  0.17271591  0.22414838  0.10832197     0.36000
C372        C  0.18790710  0.19370171  0.08863879    -0.26000
C373        C  0.17244465  0.16216509  0.07022176    -0.15200
C374        C  0.14111130  0.16076868  0.07130846     0.37100
N375        N  0.12479216  0.12779145  0.05319601    -0.89500
H376        H  0.10146525  0.19117518  0.08954386     0.18200
H377        H  0.21214288  0.19256561  0.08939919     0.18200
N378        N  0.19021493  0.24855793  0.13084368    -0.88500
H379        H  0.11045261  0.14539700  0.03850461     0.35600
H380        H  0.11166009  0.10840225  0.06815336     0.40700
H381        H  0.20654575  0.26748380  0.11930841     0.40300
H382        H  0.20132265  0.22477168  0.14446596     0.35200
C383        C  0.12727672  0.82137995  0.08564013    -0.26500
C384        C  0.14327611  0.78924710  0.10343190    -0.14600
C385        C  0.17537002  0.79240417  0.10250078     0.36000
C386        C  0.18940892  0.82390489  0.08315802    -0.26000
C387        C  0.17308756  0.85529964  0.06623985    -0.15200
C388        C  0.14168746  0.85399574  0.06724346     0.37100
N389        N  0.12453834  0.88588631  0.04961937    -0.89500
H390        H  0.10305213  0.82115264  0.08637667     0.18200
H391        H  0.21364190  0.82605312  0.08319721     0.18200
N392        N  0.19439293  0.76781175  0.12294657    -0.88500
H393        H  0.10162718  0.88054195  0.05292870     0.35600
H394        H  0.12882467  0.87922309  0.02625766     0.40700
H395        H  0.20623154  0.79138115  0.13664776     0.40300
H396        H  0.20997779  0.74954544  0.10970825     0.35200
C397        C  0.35019028  0.85650719  0.44071917    -0.26500
C398        C  0.31902641  0.85405672  0.43940905    -0.14600
C399        C  0.30556887  0.81655583  0.42409160     0.36000
C400        C  0.32329645  0.78482612  0.40786970    -0.26000
C401        C  0.35441988  0.79133761  0.40469403    -0.15200
C402        C  0.36795103  0.82491009  0.42451505     0.37100
N403        N  0.39978612  0.82957871  0.42628865    -0.89500
H404        H  0.36090304  0.88380467  0.45385935     0.18200
H405        H  0.31212355  0.75616800  0.39687709     0.18200
N406        N  0.27377055  0.81147084  0.42374839    -0.88500
H407        H  0.40611884  0.82576728  0.44933259     0.35600
H408        H  0.40566283  0.86266057  0.41965407     0.40700
H409        H  0.26872844  0.77929324  0.43263296     0.40300
H410        H  0.26662596  0.81183428  0.40077055     0.35200
C411        C  0.12868973  0.19388298  0.41244620    -0.26500
C412        C  0.14387538  0.22684804  0.39440816    -0.14600
C413        C  0.17592273  0.22461457  0.39411360     0.36000
C414        C  0.19086248  0.19391979  0.41330262    -0.26000
C415        C  0.17534095  0.16222534  0.43093473    -0.15200
C416        C  0.14392883  0.16156647  0.43017588     0.37100
N417        N  0.12760035  0.12796621  0.44737685    -0.89500
H418        H  0.10446688  0.19361087  0.41280452     0.18200
H419        H  0.21503423  0.19250103  0.41256644     0.18200
N420        N  0.19384211  0.24928923  0.37257146    -0.88500
H421        H  0.10457522  0.13171987  0.44411656     0.35600
H422        H  0.13171996  0.13420062  0.47082033     0.40700
H423        H  0.20953855  0.26871990  0.38501237     0.40300
H424        H  0.20560646  0.22579322  0.35884657     0.35200
C425        C  0.33474917  0.83069576  0.05444784    -0.26500
C426        C  0.31470411  0.85807280  0.07106625    -0.14600
C427        C  0.31214201  0.85267611  0.10310734     0.36000
C428        C  0.32986929  0.82006749  0.11791694    -0.26000
C429        C  0.34979944  0.79084672  0.10164287    -0.15200
C430        C  0.35296781  0.79853582  0.06920713     0.37100
N431        N  0.37597131  0.77718497  0.05115785    -0.89500
H432        H  0.33745715  0.83599607  0.02986948     0.18200
H433        H  0.32811242  0.81728999  0.14274704     0.18200
N434        N  0.29100376  0.87959570  0.12047188    -0.88500
H435        H  0.38984442  0.80273711  0.04233524     0.35600
H436        H  0.36593594  0.76003674  0.03249577     0.40700
H437        H  0.29848033  0.91346667  0.12049502     0.40300
H438        H  0.29063688  0.86964440  0.14355420     0.35200
C439        C  0.15810094  0.77929256  0.41563736    -0.26500
C440        C  0.13444466  0.79619763  0.39737442    -0.14600
C441        C  0.12607316  0.84270891  0.40316655     0.36000
C442        C  0.14455024  0.87148712  0.42081982    -0.26000
C443        C  0.17050336  0.85577873  0.43529034    -0.15200
C444        C  0.17614579  0.80815918  0.43408710     0.47500
N445        N  0.20004210  0.78787491  0.45091906    -0.89500
H446        H  0.16349073  0.74325124  0.41461419     0.18200
H447        H  0.13797300  0.90695917  0.42341916     0.18200
N448        N  0.09839850  0.86147702  0.39259147    -0.88500
H449        H  0.19668074  0.79444500  0.47444206     0.35600
H450        H  0.21998548  0.80318084  0.44407379     0.40700
H451        H  0.10322356  0.89011511  0.37925766     0.40300
H452        H  0.08627987  0.87297635  0.41181926     0.35200
C453        C  0.40981245  0.24244152  0.33555042    -0.26500
C454        C  0.38556415  0.22580194  0.35332321    -0.14600
C455        C  0.37652936  0.17963533  0.34706176     0.36000
C456        C  0.39454817  0.15083480  0.32911978    -0.26000
C457        C  0.42114732  0.16597437  0.31548332    -0.15200
C458        C  0.42809170  0.21299212  0.31766785     0.37100
N459        N  0.45391906  0.23104173  0.30247911    -0.89500
H460        H  0.41578000  0.27830650  0.33689222     0.18200
H461        H  0.38728384  0.11568289  0.32598130     0.18200
N462        N  0.34880370  0.16106192  0.35793255    -0.88500
H463        H  0.46765622  0.24638491  0.31920908     0.35600
H464        H  0.44683569  0.25648723  0.28746225     0.40700
H465        H  0.35351077  0.13230066  0.37113172     0.40300
H466        H  0.33638728  0.14979818  0.33882292     0.35200
C467        C  0.31978336  0.23722959  0.40611121    -0.26500
C468        C  0.35058210  0.23065136  0.40049807    -0.14600
C469        C  0.36516024  0.19653319  0.41820222     0.36000
C470        C  0.34841080  0.16560683  0.43575270    -0.26000
C471        C  0.31727931  0.16886146  0.43785351    -0.15200
C472        C  0.30303120  0.20678807  0.42438505     0.37100
N473        N  0.27139254  0.21330188  0.42808202    -0.89500
H474        H  0.30838439  0.26593261  0.39616207     0.18200
H475        H  0.35987790  0.13805432  0.44725165     0.18200
N476        N  0.39694777  0.19095194  0.41671398    -0.88500
H477        H  0.26407430  0.24084406  0.41497693     0.35600
H478        H  0.26755025  0.22249462  0.45114238     0.40700
H479        H  0.40547416  0.19431502  0.43910172     0.40300
H480        H  0.40152902  0.15782007  0.40871474     0.35200
C481        C  0.08010127  0.32080827  0.12100992    -0.26500
C482        C  0.09962527  0.29016148  0.10537022    -0.14600
C483        C  0.09989487  0.29206490  0.07228552     0.36000
C484        C  0.08024532  0.32129146  0.05681247    -0.26000
C485        C  0.06167273  0.35152634  0.07289327    -0.15200
C486        C  0.06138233  0.35112955  0.10530737     0.37100
N487        N  0.04221646  0.38193492  0.12218823    -0.89500
H488        H  0.07963951  0.32115411  0.14601500     0.18200
H489        H  0.08119316  0.32276021  0.03182554     0.18200
N490        N  0.12134237  0.26796561  0.05378385    -0.88500
H491        H  0.04472476  0.37763308  0.14596474     0.35600
H492        H  0.02010245  0.37311522  0.11687377     0.40700
H493        H  0.13395110  0.29177527  0.04148993     0.40300
H494        H  0.10976294  0.24745822  0.03778433     0.35200
C495        C  0.10232007  0.72386955  0.07311003    -0.26500
C496        C  0.10358132  0.72381239  0.10588284    -0.14600
C497        C  0.08674034  0.68915143  0.12109333     0.36000
C498        C  0.06973652  0.65737727  0.10408808    -0.26000
C499        C  0.06793328  0.65930821  0.07196792    -0.15200
C500        C  0.08408340  0.69314837  0.05624630     0.37100
N501        N  0.08318193  0.69473909  0.02306676    -0.89500
H502        H  0.11606460  0.74666370  0.05989023     0.18200
H503        H  0.05746997  0.63112035  0.11624950     0.18200
N504        N  0.08668540  0.68612620  0.15409057    -0.88500
H505        H  0.09766306  0.71995320  0.01484915     0.35600
H506        H  0.06166626  0.70478131  0.01669716     0.40700
H507        H  0.09465470  0.65384920  0.16001310     0.40300
H508        H  0.06459292  0.68875935  0.16182951     0.35200
C509        C  0.39342603  0.65903419  0.06580574    -0.26500
C510        C  0.42466354  0.65982746  0.06793043    -0.14600
C511        C  0.43854297  0.69321779  0.08679240     0.36000
C512        C  0.42111010  0.72477485  0.10324687    -0.26000
C513        C  0.38943264  0.72530608  0.10111114    -0.15200
C514        C  0.37581561  0.69111490  0.08193367     0.37100
N515        N  0.34393499  0.68869886  0.07885874    -0.89500
H516        H  0.38253675  0.63309605  0.05160125     0.18200
H517        H  0.43303506  0.74704915  0.11901966     0.18200
N518        N  0.47033076  0.69432561  0.09114868    -0.88500
H519        H  0.33688392  0.65648036  0.08615829     0.35600
H520        H  0.33855591  0.69151903  0.05548247     0.40700
H521        H  0.48059920  0.70036149  0.06991497     0.40300
H522        H  0.47723085  0.66249098  0.09914132     0.35200
C523        C  0.06031838  0.70900858  0.43307495    -0.26500
C524        C  0.07083933  0.66404103  0.43506727    -0.14600
C525        C  0.09825464  0.65316103  0.42071269     0.36000
C526        C  0.11273092  0.68538165  0.40252403    -0.26000
C527        C  0.10052230  0.72905709  0.39684061    -0.15200
C528        C  0.07530828  0.74177411  0.41514631     0.37100
N529        N  0.06469826  0.78779732  0.41599700    -0.89500
H530        H  0.04016534  0.71894944  0.44530481     0.18200
H531        H  0.13413053  0.67533840  0.39306583     0.18200
N532        N  0.11205343  0.60950381  0.42481704    -0.88500
H533        H  0.06598592  0.79972623  0.43882518     0.35600
H534        H  0.04213776  0.78767613  0.40961669     0.40700
H535        H  0.11486437  0.59413442  0.40307012     0.40300
H536        H  0.13322447  0.61481204  0.43450275     0.35200
C537        C  0.44111307  0.70240773  0.42152612    -0.26500
C538        C  0.42569613  0.66721073  0.43655051    -0.14600
C539        C  0.39423607  0.66850300  0.43731915     0.36000
C540        C  0.37902861  0.70188130  0.42089590    -0.26000
C541        C  0.39401985  0.73406187  0.40211249    -0.15200
C542        C  0.42581266  0.73614987  0.40477661     0.37100
N543        N  0.44285809  0.77304278  0.39224237    -0.89500
H544        H  0.46534077  0.70341447  0.42240355     0.18200
H545        H  0.35480112  0.70083176  0.42122267     0.18200
N546        N  0.37701292  0.63677455  0.45498563    -0.88500
H547        H  0.45946158  0.75928011  0.37792958     0.35600
H548        H  0.45373735  0.78996351  0.41047763     0.40700
H549        H  0.38442239  0.63825776  0.47786978     0.40300
H550        H  0.38042951  0.60380764  0.44616530     0.35200
C551        C  0.08802014  0.32921536  0.44427835    -0.26500
C552        C  0.06747500  0.35624625  0.42861061    -0.14600
C553        C  0.06477612  0.35136173  0.39630867     0.36000
C554        C  0.08280189  0.31963860  0.38068217    -0.26000
C555        C  0.10349970  0.29104571  0.39594424    -0.15200
C556        C  0.10668763  0.29813186  0.42854096     0.37100
N557        N  0.13004678  0.27726078  0.44591069    -0.89500
H558        H  0.09089685  0.33420707  0.46895996     0.18200
H559        H  0.08038561  0.31702872  0.35588013     0.18200
N560        N  0.04410950  0.37781107  0.37845560    -0.88500
H561        H  0.14347798  0.30308892  0.45554707     0.35600
H562        H  0.12028032  0.25911165  0.46397215     0.40700
H563        H  0.03092194  0.39903518  0.39235315     0.40300
H564        H  0.02931270  0.35491950  0.36763983     0.35200
C565        C  0.37805377  0.32225305  0.08524183    -0.26500
C566        C  0.39209646  0.28813757  0.10285350    -0.14600
C567        C  0.42281819  0.27953797  0.09606635     0.36000
C568        C  0.43939168  0.31138368  0.07876913    -0.26000
C569        C  0.42570748  0.35004978  0.06631741    -0.15200
C570        C  0.39430737  0.35356397  0.06796604     0.37100
N571        N  0.37811349  0.38859072  0.05240406    -0.89500
H572        H  0.35426260  0.32723821  0.08672113     0.18200
H573        H  0.46315050  0.30604180  0.07537707     0.18200
N574        N  0.43695319  0.23765932  0.10443908    -0.88500
H575        H  0.38358412  0.42030330  0.06221881     0.35600
H576        H  0.38422877  0.38811794  0.02909898     0.40700
H577        H  0.45657780  0.24549018  0.11654105     0.40300
H578        H  0.44323074  0.22054709  0.08411434     0.35200
C579        C  0.39482920  0.35743323  0.43085671    -0.26500
C580        C  0.42590889  0.35382877  0.43031633    -0.14600
C581        C  0.43916254  0.31579191  0.41548800     0.36000
C582        C  0.42091505  0.28374222  0.39957859    -0.26000
C583        C  0.38948584  0.28917204  0.39767951    -0.15200
C584        C  0.37663698  0.32535093  0.41565395     0.37100
N585        N  0.34487381  0.33115731  0.41734120    -0.89500
H586        H  0.38442761  0.38563502  0.44327596     0.18200
H587        H  0.43162631  0.25460274  0.38885318     0.18200
N588        N  0.47109620  0.31032093  0.41612005    -0.88500
H589        H  0.33959333  0.36352980  0.40902021     0.35600
H590        H  0.33852637  0.33004324  0.44055342     0.40700
H591        H  0.48050800  0.33784359  0.40439437     0.40300
H592        H  0.47740282  0.28072683  0.40400456     0.35200
C593        C  0.36355873  0.68487033  0.35477799    -0.26500
C594        C  0.35437337  0.73090146  0.35885716    -0.14600
C595        C  0.32910003  0.74460152  0.34051581     0.36000
C596        C  0.31239926  0.71152506  0.32386756    -0.26000
C597        C  0.32050738  0.66531750  0.32311272    -0.15200
C598        C  0.34730560  0.65273778  0.33765630     0.37100
N599        N  0.35893435  0.60731526  0.33456703    -0.89500
H600        H  0.38437163  0.67273518  0.36422256     0.18200
H601        H  0.29265125  0.72233239  0.31147549     0.18200
N602        N  0.31914179  0.79102925  0.33779595    -0.88500
H603        H  0.36126920  0.59378062  0.35664870     0.35600
H604        H  0.38016839  0.60926505  0.32452172     0.40700
H605        H  0.33189246  0.81371377  0.35070981     0.40300
H606        H  0.29735898  0.79303014  0.34651644     0.35200
C607        C  0.15334158  0.33811544  0.30896311    -0.26500
C608        C  0.17494186  0.36374039  0.32464333    -0.14600
C609        C  0.17802656  0.35890089  0.35665649     0.36000
C610        C  0.16046546  0.32625494  0.37192196    -0.26000
C611        C  0.14130837  0.29549456  0.35568432    -0.15200
C612        C  0.13595654  0.30520764  0.32393108     0.37100
N613        N  0.11181556  0.28465951  0.30694526    -0.89500
H614        H  0.14883125  0.34546605  0.28513953     0.18200
H615        H  0.16290503  0.32298463  0.39666248     0.18200
N616        N  0.19908308  0.38691466  0.37347831    -0.88500
H617        H  0.12065570  0.26845567  0.28731779     0.35600
H618        H  0.09756866  0.31059693  0.29959160     0.40700
H619        H  0.22049471  0.37855085  0.36553805     0.40300
H620        H  0.19859258  0.37916453  0.39696298     0.35200
C621        C  0.34790400  0.36975006  0.17476239    -0.26500
C622        C  0.32169125  0.35431747  0.18905697    -0.14600
C623        C  0.31482632  0.30714249  0.18703225     0.36000
C624        C  0.33276068  0.27812559  0.16834537    -0.26000
C625        C  0.35643679  0.29523356  0.14998750    -0.15200
C626        C  0.36529974  0.34156164  0.15579896     0.37100
N627        N  0.39221506  0.36099455  0.14353344    -0.89500
H628        H  0.35509080  0.40495425  0.17772621     0.18200
H629        H  0.32688784  0.24225852  0.16638666     0.18200
N630        N  0.28923166  0.28894900  0.20281390    -0.88500
H631        H  0.38643643  0.38960179  0.13064216     0.35600
H632        H  0.40541020  0.37273967  0.16195548     0.40700
H633        H  0.29359481  0.29125795  0.22649515     0.40300
H634        H  0.28653397  0.25416243  0.19761984     0.35200
C635        C  0.17859834  0.65971353  0.14705514    -0.26500
C636        C  0.18071670  0.66447461  0.17911815    -0.14600
C637        C  0.16402303  0.69855733  0.19439862     0.36000
C638        C  0.14562171  0.72759423  0.17711581    -0.26000
C639        C  0.14451801  0.72513202  0.14441920    -0.15200
C640        C  0.16095473  0.68917667  0.12967470     0.37100
N641        N  0.16031053  0.68293883  0.09678500    -0.89500
H642        H  0.19087539  0.63275452  0.13525602     0.18200
H643        H  0.13185196  0.75155724  0.18974367     0.18200
N644        N  0.16499451  0.70254633  0.22752256    -0.88500
H645        H  0.15208894  0.65010469  0.09191802     0.35600
H646        H  0.18220266  0.68470465  0.08839375     0.40700
H647        H  0.15573630  0.67270565  0.23657505     0.40300
H648        H  0.15162332  0.72959665  0.23529926     0.35200
C649        C  0.31935171  0.72317169  0.14138877    -0.26500
C650        C  0.35108151  0.72488265  0.14206212    -0.14600
C651        C  0.36575470  0.69279636  0.16137330     0.36000
C652        C  0.34913583  0.66226939  0.17935441    -0.26000
C653        C  0.31787687  0.66297042  0.17954170    -0.15200
C654        C  0.30288988  0.69416864  0.16055135     0.37100
N655        N  0.27087389  0.69600154  0.15932116    -0.89500
H656        H  0.30661638  0.74338186  0.12551110     0.18200
H657        H  0.36086973  0.63799269  0.19359324     0.18200
N658        N  0.39773188  0.69154937  0.16328613    -0.88500
H659        H  0.26283549  0.70489278  0.18124253     0.35600
H660        H  0.26269151  0.66354498  0.15331917     0.40700
H661        H  0.40476970  0.65880221  0.15666307     0.40300
H662        H  0.40395634  0.69703519  0.18630310     0.35200
C663        C  0.36294211  0.33482909  0.34748743    -0.26500
C664        C  0.35058085  0.29158662  0.35484713    -0.14600
C665        C  0.32375744  0.27929350  0.33899832     0.36000
C666        C  0.30761394  0.31237172  0.32251973    -0.26000
C667        C  0.31836435  0.35722874  0.31952103    -0.15200
C668        C  0.34718561  0.36745768  0.33086263     0.37100
N669        N  0.36105409  0.41080742  0.32517857    -0.89500
H670        H  0.38523413  0.34437236  0.35488877     0.18200
H671        H  0.28636497  0.30278553  0.31224763     0.18200
N672        N  0.31266310  0.23343488  0.33907273    -0.88500
H673        H  0.38107491  0.40501275  0.31328876     0.35600
H674        H  0.36624063  0.42615310  0.34647090     0.40700
H675        H  0.31193465  0.22159715  0.31619658     0.40300
H676        H  0.29070626  0.23383728  0.34740724     0.35200
C677        C  0.16983156  0.74069623  0.35060278    -0.26500
C678        C  0.13849661  0.73371969  0.35267111    -0.14600
C679        C  0.12612472  0.69775869  0.33406444     0.36000
C680        C  0.14477538  0.66724615  0.31799531    -0.26000
C681        C  0.17589764  0.67210311  0.31841813    -0.15200
C682        C  0.18853932  0.71036835  0.33381441     0.37100
N683        N  0.22039893  0.71721130  0.33362729    -0.89500
H684        H  0.18014062  0.76981129  0.36192525     0.18200
H685        H  0.13471899  0.63885627  0.30535766     0.18200
N686        N  0.09444452  0.69038565  0.33274047    -0.88500
H687        H  0.22629589  0.74541929  0.34744965     0.35600
H688        H  0.22664258  0.72536028  0.31110491     0.40700
H689        H  0.08984649  0.65739091  0.34048800     0.40300
H690        H  0.08776310  0.69214522  0.30966344     0.35200
C691        C  0.17508929  0.36040225  0.14718606    -0.26500
C692        C  0.17475210  0.36047847  0.17949038    -0.14600
C693        C  0.15479754  0.33129889  0.19476537     0.36000
C694        C  0.13668601  0.30094537  0.17757240    -0.26000
C695        C  0.13911393  0.29676265  0.14509525    -0.15200
C696        C  0.15751371  0.32943594  0.12994445     0.37100
N697        N  0.15909599  0.33050677  0.09693715    -0.89500
H698        H  0.18934068  0.38437865  0.13516683     0.18200
H699        H  0.12052814  0.28095883  0.19008889     0.18200
N700        N  0.15198055  0.33400469  0.22770232    -0.88500
H701        H  0.18137229  0.32619286  0.09021316     0.35600
H702        H  0.15228604  0.36287136  0.08987501     0.40700
H703        H  0.17198056  0.32206310  0.23705279     0.40300
H704        H  0.13516092  0.31194698  0.23533977     0.35200
O705        O  0.18778517  0.44027940  0.81722121    -0.75500
O706        O  0.21121774  0.38418569  0.78898357    -0.54400
C707        C  0.19249802  0.39825304  0.80959171     0.78200
O708        O  0.19208756  0.58732557  0.69240074    -0.60100
O709        O  0.21641052  0.64181069  0.72132861    -0.53100
C710        C  0.19801182  0.62900189  0.70002625     0.70300
O711        O  0.18715876  0.43511536  0.69479014    -0.74600
O712        O  0.21187325  0.38030619  0.72163794    -0.55200
C713        C  0.19256511  0.39334027  0.70158231     0.76300
O714        O  0.18783869  0.59396361  0.81168363    -0.59800
O715        O  0.21755269  0.64629271  0.78776124    -0.52900
C716        C  0.19559931  0.63537304  0.80544789     0.72900
Zr717      Zr  0.20497195  0.51554160  0.80149273     2.54700
O718        O  0.15082611  0.51455036  0.80729247    -0.80400
O719        O  0.21259885  0.52430507  0.85694474    -0.93800
Zr720      Zr  0.20390147  0.51117201  0.70986859     2.64700
O721        O  0.14952663  0.51469158  0.71235983    -0.98700
O722        O  0.20464783  0.50703158  0.65371657    -0.80800
O723        O  0.20278190  0.46891744  0.75604247    -0.84100
O724        O  0.20445986  0.55740589  0.75516772    -2.18900
O725        O  0.30923401  0.58687054  0.81425481    -0.67500
O726        O  0.28508440  0.64232893  0.78779828    -0.52100
C727        C  0.30470771  0.62893868  0.80748970     0.71200
O728        O  0.30841856  0.43127082  0.69850058    -0.60400
O729        O  0.28077242  0.37735712  0.72298029    -0.52400
C730        C  0.30226827  0.38947417  0.70497855     0.73000
O731        O  0.30400407  0.58420494  0.68881237    -0.71800
O732        O  0.28155434  0.63969284  0.71832255    -0.50500
C733        C  0.29847703  0.62615932  0.69603129     0.74400
O734        O  0.30832601  0.43294901  0.81147041    -0.67200
O735        O  0.28038959  0.37841514  0.78692281    -0.54400
C736        C  0.30190487  0.39098866  0.80492850     0.72800
Zr737      Zr  0.29278341  0.51042804  0.79961828     2.77500
O738        O  0.34716788  0.50676103  0.79747646    -0.97900
O739        O  0.29180961  0.50907353  0.85578151    -0.78700
Zr740      Zr  0.29161789  0.50875241  0.70846143     2.70100
O741        O  0.34604677  0.51219240  0.70858648    -0.80000
O742        O  0.28919270  0.49902970  0.65259645    -0.99100
Zr743      Zr  0.24642819  0.42222588  0.75506587     2.21500
Zr744      Zr  0.24996470  0.60024810  0.75481251     2.11100
O745        O  0.29401546  0.55434903  0.75398278    -2.47800
O746        O  0.29161751  0.46534706  0.75409125    -0.79800
O747        O  0.25002765  0.55814612  0.80150241    -0.72000
O748        O  0.24705353  0.46465866  0.70835752    -2.32900
O749        O  0.24782257  0.46757914  0.80145772    -2.29100
O750        O  0.24844773  0.55503636  0.70858408    -0.73700
H751        H  0.18730410  0.57735602  0.75475166     0.78300
H752        H  0.24670203  0.44458129  0.69045689     0.79400
H753        H  0.31182298  0.57316032  0.75344579     0.81600
H754        H  0.24783010  0.44842889  0.81944568     0.79200
H755        H  0.22310225  0.52356025  0.64781863     0.42200
H756        H  0.28021274  0.52767132  0.64506284     0.41200
H757        H  0.35209541  0.49134935  0.72526442     0.40900
H758        H  0.35335241  0.53381433  0.78553447     0.38800
H759        H  0.31239610  0.51758003  0.86209335     0.41900
H760        H  0.22224114  0.55463846  0.85960763     0.36700
H761        H  0.14323641  0.52863299  0.78819394     0.42800
H762        H  0.14354756  0.48710461  0.72386694     0.39200
H763        H  0.35383232  0.51349581  0.81884873     0.44200
H764        H  0.22851917  0.50217681  0.86193281     0.42900
H765        H  0.14514689  0.54045033  0.72669939     0.43000
H766        H  0.31030582  0.50047378  0.64575141     0.43400
O767        O  0.43933986  0.42736511  0.94072790    -0.75500
O768        O  0.46706173  0.37356045  0.96541530    -0.54400
C769        C  0.44642196  0.38561132  0.94660188     0.78200
O770        O  0.05602148  0.58461899  0.94252527    -0.60100
O771        O  0.03046456  0.63892647  0.96967490    -0.53100
C772        C  0.05063342  0.62652090  0.95000436     0.70300
O773        O  0.05449768  0.43149325  0.93709043    -0.74600
O774        O  0.02982029  0.37682440  0.96452503    -0.55200
C775        C  0.04856690  0.38974837  0.94383377     0.76300
O776        O  0.43767997  0.58378721  0.94391375    -0.59800
O777        O  0.46655847  0.63730682  0.96873735    -0.52900
C778        C  0.44513063  0.62548830  0.95057119     0.72900
Zr779      Zr  0.45488358  0.50571972  0.95445994     2.54700
O780        O  0.46093293  0.50818802  0.89866452    -0.80400
O781        O  0.40058440  0.50659980  0.94993234    -0.93800
Zr782      Zr  0.03952911  0.50742915  0.95448050     2.64700
O783        O  0.03555128  0.50863911  0.89842099    -0.98700
O784        O  0.09394014  0.50765932  0.95324033    -0.80800
O785        O  0.49906644  0.46091220  0.95428188    -0.84100
O786        O  0.49919974  0.55044433  0.95488058    -2.18900
O787        O  0.43417375  0.58305915  0.56274583    -0.67500
O788        O  0.46030418  0.63787578  0.53682587    -0.52100
C789        C  0.44033264  0.62482744  0.55633049     0.71200
O790        O  0.05431808  0.43417967  0.56668770    -0.60400
O791        O  0.03058017  0.37990816  0.53702086    -0.52400
C792        C  0.04824975  0.39255630  0.55903886     0.73000
O793        O  0.05643021  0.58676626  0.56527458    -0.71800
O794        O  0.03202339  0.64091317  0.53751354    -0.50500
C795        C  0.05101762  0.62839182  0.55803563     0.74400
O796        O  0.43499639  0.42906924  0.55967702    -0.67200
O797        O  0.46197047  0.37569150  0.53283546    -0.54400
C798        C  0.44142389  0.38746532  0.55211100     0.72800
Zr799      Zr  0.45055287  0.50703893  0.54720502     2.77500
O800        O  0.44995885  0.50775434  0.60346222    -0.97900
O801        O  0.39626317  0.50540202  0.54323858    -0.78700
Zr802      Zr  0.04151111  0.51009661  0.54925313     2.70100
O803        O  0.04023010  0.51199959  0.60542227    -0.80000
O804        O  0.09602120  0.51063338  0.54811663    -0.99100
Zr805      Zr  0.49557996  0.41995026  0.50086793     2.21500
Zr806      Zr  0.49551502  0.59709688  0.50337491     2.11100
O807        O  0.49474683  0.55248088  0.54917368    -2.47800
O808        O  0.49479365  0.46272856  0.54806895    -0.79800
O809        O  0.45049189  0.55312105  0.50253417    -0.72000
O810        O  0.04388234  0.46502359  0.50331410    -2.32900
O811        O  0.45059775  0.46389993  0.50072608    -2.29100
O812        O  0.04336962  0.55482081  0.50416278    -0.73700
H813        H  0.49945386  0.57013373  0.93714975     0.78300
H814        H  0.06126276  0.44550230  0.50360879     0.79400
H815        H  0.49456544  0.57191877  0.56737962     0.81600
H816        H  0.43319736  0.44424291  0.50020449     0.79200
H817        H  0.09994625  0.51856705  0.97407292     0.42200
H818        H  0.10154995  0.48326873  0.53570862     0.41200
H819        H  0.02117286  0.49667748  0.61077775     0.40900
H820        H  0.45281673  0.47548541  0.60935140     0.38800
H821        H  0.39175400  0.52415571  0.52498131     0.41900
H822        H  0.39364146  0.47875222  0.96055956     0.36700
H823        H  0.44881353  0.48225244  0.89061981     0.42800
H824        H  0.01950246  0.48632902  0.89341646     0.39200
H825        H  0.46889199  0.52308615  0.60949230     0.44200
H826        H  0.39663170  0.50038891  0.92777783     0.42900
H827        H  0.02673448  0.53875288  0.89373607     0.43000
H828        H  0.10134464  0.53674566  0.53486272     0.43400
C829        C  0.37097020  0.25648018  0.87599662    -0.02700
O830        O  0.30746583  0.08864781  0.94404654    -0.75500
O831        O  0.27821495  0.14219811  0.96821023    -0.54400
C832        C  0.29972879  0.13036209  0.95009548     0.78200
O833        O  0.18589305  0.93188456  0.94206333    -0.60100
O834        O  0.21147381  0.87791122  0.96830664    -0.53100
C835        C  0.19097721  0.89006236  0.94932379     0.70300
O836        O  0.18510005  0.08531444  0.94008593    -0.74600
O837        O  0.21161900  0.14019463  0.96647231    -0.55200
C838        C  0.19138564  0.12715294  0.94708246     0.76300
O839        O  0.30951679  0.93154900  0.94645825    -0.59800
O840        O  0.27904553  0.87830659  0.96849605    -0.52900
C841        C  0.30159931  0.88982023  0.95199676     0.72900
Zr842      Zr  0.29132855  0.01035887  0.95614924     2.54700
O843        O  0.28609717  0.00868529  0.90017980    -0.80400
O844        O  0.34564060  0.01558657  0.95224662    -0.93800
Zr845      Zr  0.20321441  0.00938595  0.95289322     2.64700
O846        O  0.21087312  0.00805491  0.89720601    -0.98700
O847        O  0.14915264  0.00909761  0.94640233    -0.80800
O848        O  0.24708246  0.05512827  0.95415873    -0.84100
O849        O  0.24736943  0.96468822  0.95366698    -2.18900
O850        O  0.30430465  0.93644526  0.56310084    -0.67500
O851        O  0.27693291  0.88183093  0.53738260    -0.52100
C852        C  0.29739720  0.89465854  0.55650559     0.71200
O853        O  0.18260265  0.08708392  0.56068753    -0.60400
O854        O  0.21050009  0.14106495  0.53599544    -0.52400
C855        C  0.18985752  0.12856526  0.55475340     0.73000
O856        O  0.17997294  0.93430448  0.55711159    -0.71800
O857        O  0.21133242  0.88125342  0.53571657    -0.50500
C858        C  0.18887315  0.89302583  0.55251415     0.74400
O859        O  0.30146842  0.09098566  0.56513710    -0.67200
O860        O  0.27528869  0.14395166  0.53798811    -0.54400
C861        C  0.29514934  0.13244632  0.55785117     0.72800
Zr862      Zr  0.28600126  0.01287514  0.55140855     2.77500
O863        O  0.27732036  0.01054932  0.60688857    -0.97900
O864        O  0.33995032  0.01611631  0.55863408    -0.78700
Zr865      Zr  0.19756780  0.01077110  0.54499451     2.70100
O866        O  0.19274119  0.00763761  0.60093511    -0.80000
O867        O  0.14370142  0.01566339  0.53754586    -0.99100
Zr868      Zr  0.24441993  0.09921345  0.50270945     2.21500
Zr869      Zr  0.24477147  0.92308002  0.50248123     2.11100
O870        O  0.24200778  0.96732627  0.54907976    -2.47800
O871        O  0.24148530  0.05651237  0.54917016    -0.79800
O872        O  0.28950707  0.96769780  0.50570063    -0.72000
O873        O  0.19988108  0.05447559  0.49958606    -2.32900
O874        O  0.28956689  0.05620330  0.50576803    -2.29100
O875        O  0.19985935  0.96587842  0.49925158    -0.73700
H876        H  0.24798385  0.94420039  0.93599901     0.78300
H877        H  0.18233035  0.07357217  0.49872813     0.79400
H878        H  0.24109386  0.94787930  0.56689123     0.81600
H879        H  0.30687137  0.07602068  0.50690206     0.79200
H880        H  0.14119179  0.00713739  0.96767868     0.42200
H881        H  0.13874418  0.98958246  0.52363333     0.41200
H882        H  0.20607389  0.98246750  0.60720068     0.40900
H883        H  0.29611227  0.99823308  0.61547829     0.38800
H884        H  0.34810389  0.01936059  0.53751928     0.41900
H885        H  0.34977464  0.01497805  0.92978654     0.36700
H886        H  0.28277891  0.97607286  0.89474466     0.42800
H887        H  0.22000629  0.97794336  0.89262180     0.39200
H888        H  0.27713013  0.04299941  0.61369155     0.44200
H889        H  0.35333824  0.98607902  0.95976892     0.42900
H890        H  0.19044509  0.00564225  0.88850015     0.43000
H891        H  0.13505126  0.00723946  0.55773591     0.43400
C892        C  0.11759625  0.76131099  0.87518411    -0.02700
O893        O  0.43599947  0.08383542  0.69007520    -0.75500
O894        O  0.46146261  0.13885334  0.71690039    -0.54400
C895        C  0.44096433  0.12578365  0.69766191     0.78200
O896        O  0.43804290  0.93377107  0.80931584    -0.60100
O897        O  0.46157328  0.87699699  0.78272387    -0.53100
C898        C  0.44282602  0.89134769  0.80329608     0.70300
O899        O  0.43542550  0.08721492  0.80460602    -0.74600
O900        O  0.46350069  0.14190565  0.78153948    -0.55200
C901        C  0.44200520  0.12920715  0.79922736     0.76300
O902        O  0.43497846  0.93278748  0.68791145    -0.59800
O903        O  0.46124609  0.87801518  0.71330542    -0.52900
C904        C  0.44101302  0.89112770  0.69422675     0.72900
Zr905      Zr  0.45352581  0.00793583  0.70215008     2.54700
O906        O  0.39918295  0.00566204  0.69965650    -0.80400
O907        O  0.45939670  0.00769708  0.64626981    -0.93800
Zr908      Zr  0.45173313  0.00987344  0.79331881     2.64700
O909        O  0.39730370  0.00644602  0.79311517    -0.98700
O910        O  0.45360835  0.01785723  0.84931889    -0.80800
O911        O  0.45209189  0.05322704  0.74777755    -0.84100
O912        O  0.45110475  0.96452322  0.74772777    -2.18900
O913        O  0.05845261  0.93107071  0.69154211    -0.67500
O914        O  0.02957241  0.87740370  0.71540561    -0.52100
C915        C  0.05140546  0.88954184  0.69782729     0.71200
O916        O  0.05691778  0.08538196  0.80793399    -0.60400
O917        O  0.03028009  0.13996057  0.78251925    -0.52400
C918        C  0.05041353  0.12707426  0.80169731     0.73000
O919        O  0.05490872  0.93001896  0.80771399    -0.71800
O920        O  0.02602938  0.87679570  0.78243602    -0.50500
C921        C  0.04690202  0.88835281  0.80145618     0.74400
O922        O  0.05879013  0.08432200  0.69049654    -0.67200
O923        O  0.03016251  0.13908534  0.71418217    -0.54400
C924        C  0.05138891  0.12613594  0.69603683     0.72800
Zr925      Zr  0.04100961  0.00799950  0.70365470     2.77500
O926        O  0.09552872  0.00801979  0.70565034    -0.97900
O927        O  0.04013161  0.00533666  0.64747595    -0.78700
Zr928      Zr  0.03979882  0.00839535  0.79471322     2.70100
O929        O  0.09420089  0.00950552  0.79720565    -0.80000
O930        O  0.03448491  0.00785949  0.85065560    -0.99100
Zr931      Zr  0.99655688  0.09859639  0.74836635     2.21500
Zr932      Zr  0.49505283  0.91883409  0.74831403     2.11100
O933        O  0.04006614  0.96364552  0.74893724    -2.47800
O934        O  0.04088745  0.05312548  0.74936375    -0.79800
O935        O  0.49708646  0.96197611  0.70199464    -0.72000
O936        O  0.99655656  0.05545018  0.79490017    -2.32900
O937        O  0.99726258  0.05388269  0.70188782    -2.29100
O938        O  0.49462434  0.96291516  0.79511948    -0.73700
H939        H  0.43328141  0.94573672  0.74763519     0.78300
H940        H  0.99644908  0.07548307  0.81282907     0.79400
H941        H  0.05735763  0.94401492  0.74936206     0.81600
H942        H  0.99756908  0.07318889  0.68396861     0.79200
H943        H  0.45638910  0.98641089  0.85693698     0.42200
H944        H  0.05486763  0.01441693  0.85852099     0.41200
H945        H  0.10045990  0.02779967  0.77924144     0.40900
H946        H  0.10090773  0.03578359  0.71778645     0.38800
H947        H  0.02214014  0.02287921  0.64172506     0.41900
H948        H  0.43948211  0.99859102  0.63823643     0.36700
H949        H  0.39256968  0.01854063  0.71976934     0.42800
H950        H  0.39132204  0.01888956  0.81356982     0.39200
H951        H  0.10072661  0.98245479  0.71936914     0.44200
H952        H  0.47231786  0.98102083  0.64172300     0.42900
H953        H  0.39115081  0.03012643  0.77832656     0.43000
H954        H  0.02293434  0.03574975  0.85579439     0.43400
C955        C  0.36729126  0.75938452  0.62447877    -0.02700
C956        C  0.12191191  0.26226316  0.62747763    -0.02700
C957        C  0.37133709  0.26145967  0.62713004    -0.02700
C958        C  0.12673372  0.75823230  0.62865369    -0.02700
C959        C  0.12285129  0.25854486  0.87413027    -0.02700
C960        C  0.37623992  0.76136903  0.88235118    -0.02700
C961        C  0.09818489  0.16485813  0.81356798    -0.26500
C962        C  0.06739326  0.16250008  0.81842635    -0.14600
C963        C  0.05427246  0.19006302  0.84158042     0.36000
C964        C  0.07241649  0.21955966  0.85910581    -0.26000
C965        C  0.10361908  0.22456794  0.85371337    -0.15200
C966        C  0.11644266  0.19420230  0.83102472     0.37100
N967        N  0.14788808  0.19038173  0.82545680    -0.89500
H968        H  0.10842745  0.14229958  0.79654574     0.18200
H969        H  0.06148055  0.23696729  0.87807476     0.18200
N970        N  0.02298889  0.18745247  0.84932402    -0.88500
H971        H  0.15801794  0.17535659  0.84439814     0.35600
H972        H  0.15731616  0.22209408  0.82071173     0.40700
H973        H  0.01148486  0.16340134  0.83582665     0.40300
H974        H  0.01352309  0.21926188  0.84473233     0.35200
C975        C  0.09955426  0.16266352  0.68217918    -0.26500
C976        C  0.06841564  0.16177359  0.67985713    -0.14600
C977        C  0.05394957  0.19341312  0.66098589     0.36000
C978        C  0.07104804  0.22520376  0.64442206    -0.26000
C979        C  0.10264373  0.22839413  0.64745343    -0.15200
C980        C  0.11665672  0.19540519  0.66662517     0.37100
N981        N  0.14849638  0.19452517  0.67016848    -0.89500
H982        H  0.11077502  0.13783487  0.69642599     0.18200
H983        H  0.05907061  0.24593615  0.62827397     0.18200
N984        N  0.02189727  0.19222020  0.65796171    -0.88500
H985        H  0.15615539  0.16251406  0.66266515     0.35600
H986        H  0.15350558  0.19809241  0.69365644     0.40700
H987        H  0.01605569  0.16117892  0.64728031     0.40300
H988        H  0.01448469  0.21811337  0.64346775     0.35200
C989        C  0.43073748  0.81063794  0.81968171    -0.26500
C990        C  0.42520633  0.85785240  0.82182150    -0.14600
C991        C  0.40223068  0.87288221  0.84189215     0.36000
C992        C  0.38749116  0.84196208  0.86072845    -0.26000
C993        C  0.39383458  0.79464139  0.86058595    -0.15200
C994        C  0.41480964  0.77907702  0.83795938     0.37100
N995        N  0.42034445  0.73128064  0.83346026    -0.89500
H996        H  0.44743814  0.79788767  0.80364580     0.18200
H997        H  0.36981427  0.85646732  0.87456489     0.18200
N998        N  0.39284568  0.91973378  0.84302368    -0.88500
H999        H  0.44321373  0.72531893  0.83618272     0.35600
H1000       H  0.41478180  0.72270093  0.81066167     0.40700
H1001       H  0.39535952  0.93203236  0.86566435     0.40300
H1002       H  0.37014304  0.92100969  0.83729949     0.35200
C1003       C  0.10129100  0.85813370  0.68438356    -0.26500
C1004       C  0.07017685  0.85369500  0.68352912    -0.14600
C1005       C  0.05750409  0.81838258  0.66595025     0.36000
C1006       C  0.07571369  0.78865547  0.64896968    -0.26000
C1007       C  0.10739167  0.79144507  0.64952941    -0.15200
C1008       C  0.11995374  0.82861551  0.66749721     0.37100
N1009       N  0.15116239  0.84012609  0.66779763    -0.89500
H1010       H  0.11125808  0.88629876  0.69732614     0.18200
H1011       H  0.06387658  0.76508811  0.63408307     0.18200
N1012       N  0.02581828  0.81467113  0.66302282    -0.88500
H1013       H  0.15726301  0.85415865  0.64672053     0.35600
H1014       H  0.16428974  0.81191309  0.67280925     0.40700
H1015       H  0.02111487  0.81694686  0.63948279     0.40300
H1016       H  0.01940020  0.78210222  0.67022910     0.35200
C1017       C  0.39219525  0.85543714  0.68198765    -0.26500
C1018       C  0.42317729  0.85627762  0.67785808    -0.14600
C1019       C  0.43625771  0.82790017  0.65538653     0.36000
C1020       C  0.41845858  0.79638628  0.63900073    -0.26000
C1021       C  0.38721068  0.79306221  0.64384135    -0.15200
C1022       C  0.37411800  0.82492272  0.66504261     0.37100
N1023       N  0.34242578  0.82594059  0.66987575    -0.89500
H1024       H  0.38188473  0.87897577  0.69832125     0.18200
H1025       H  0.42925313  0.77666161  0.62101421     0.18200
N1026       N  0.46734280  0.83310436  0.64793669    -0.88500
H1027       H  0.33479978  0.85863788  0.66452777     0.35600
H1028       H  0.33818004  0.82050075  0.69327351     0.40700
H1029       H  0.47048020  0.86615241  0.63960162     0.40300
H1030       H  0.47318025  0.81091545  0.62980682     0.35200
C1031       C  0.42954790  0.20718030  0.68371942    -0.26500
C1032       C  0.42154192  0.16076177  0.68274153    -0.14600
C1033       C  0.39474917  0.14826728  0.66728022     0.36000
C1034       C  0.37863097  0.18126869  0.65113315    -0.26000
C1035       C  0.38879084  0.22687801  0.64806552    -0.15200
C1036       C  0.41323703  0.24013869  0.66734575     0.37100
N1037       N  0.42204644  0.28699296  0.67024545    -0.89500
H1038       H  0.44901809  0.21812720  0.69678356     0.18200
H1039       H  0.35745988  0.17059334  0.64142657     0.18200
N1040       N  0.38345440  0.10216544  0.66827382    -0.88500
H1041       H  0.44458945  0.28994153  0.66417709     0.35600
H1042       H  0.42005091  0.29667606  0.69347925     0.40700
H1043       H  0.36429977  0.09817875  0.65463989     0.40300
H1044       H  0.37689550  0.09605973  0.69101523     0.35200
C1045       C  0.09499548  0.85324595  0.81611895    -0.26500
C1046       C  0.06377785  0.85130269  0.81667263    -0.14600
C1047       C  0.04973737  0.81462525  0.83203479     0.36000
C1048       C  0.06708570  0.78337111  0.84863661    -0.26000
C1049       C  0.09837948  0.78883806  0.85171820    -0.15200
C1050       C  0.11233088  0.82225289  0.83272593     0.37100
N1051       N  0.14420978  0.82717360  0.83194950    -0.89500
H1052       H  0.10614266  0.87995929  0.80330837     0.18200
H1053       H  0.05561472  0.75545876  0.85966135     0.18200
N1054       N  0.01786692  0.80935074  0.83237661    -0.88500
H1055       H  0.14975314  0.86031039  0.83935931     0.35600
H1056       H  0.15123812  0.82323559  0.80904654     0.40700
H1057       H  0.01043111  0.80431273  0.80972056     0.40300
H1058       H  0.00839603  0.83941371  0.84123998     0.35200
C1059       C  0.36181251  0.20019401  0.58644332    -0.26500
C1060       C  0.34875005  0.23473279  0.60534990    -0.14600
C1061       C  0.31688672  0.24051942  0.60233944     0.36000
C1062       C  0.29988232  0.20668900  0.58684980    -0.26000
C1063       C  0.31339441  0.16906513  0.57235331    -0.15200
C1064       C  0.34469362  0.16712407  0.57074676     0.37100
N1065       N  0.35903584  0.13110195  0.55337526    -0.89500
H1066       H  0.38589745  0.19680531  0.58588676     0.18200
H1067       H  0.27576317  0.21016293  0.58583840     0.18200
N1068       N  0.30078873  0.28102730  0.61126127    -0.88500
H1069       H  0.38230688  0.13418159  0.55472857     0.35600
H1070       H  0.35336673  0.13511123  0.53015441     0.40700
H1071       H  0.31429723  0.30914497  0.61604939     0.40300
H1072       H  0.28714723  0.27369985  0.63017084     0.35200
C1073       C  0.12671441  0.19677794  0.58911512    -0.26500
C1074       C  0.14192795  0.22973635  0.60762188    -0.14600
C1075       C  0.17391692  0.22668010  0.60888340     0.36000
C1076       C  0.18895205  0.19553669  0.58963379    -0.26000
C1077       C  0.17328287  0.16421986  0.57126568    -0.15200
C1078       C  0.14198314  0.16434739  0.57127655     0.37100
N1079       N  0.12559954  0.13169755  0.55295007    -0.89500
H1080       H  0.10248735  0.19658526  0.58829846     0.18200
H1081       H  0.21315737  0.19367011  0.59072318     0.18200
N1082       N  0.19153043  0.25128499  0.63120734    -0.88500
H1083       H  0.11202173  0.14959962  0.53767395     0.35600
H1084       H  0.11170807  0.11314700  0.56766873     0.40700
H1085       H  0.20794789  0.26983139  0.61951840     0.40300
H1086       H  0.20244461  0.22767231  0.64512873     0.35200
C1087       C  0.12813525  0.82266061  0.58999920    -0.26500
C1088       C  0.14489451  0.79052186  0.60706577    -0.14600
C1089       C  0.17680628  0.79387798  0.60522334     0.36000
C1090       C  0.19000340  0.82509754  0.58515948    -0.26000
C1091       C  0.17303870  0.85671620  0.56909192    -0.15200
C1092       C  0.14175824  0.85576230  0.57153429     0.37100
N1093       N  0.12394320  0.88846574  0.55533586    -0.89500
H1094       H  0.10394475  0.82213319  0.59145272     0.18200
H1095       H  0.21409538  0.82689600  0.58388114     0.18200
N1096       N  0.19639672  0.76986770  0.62542708    -0.88500
H1097       H  0.10119708  0.88335567  0.55978735     0.35600
H1098       H  0.12703535  0.88255675  0.53169055     0.40700
H1099       H  0.20829491  0.79386735  0.63872083     0.40300
H1100       H  0.21188407  0.75172934  0.61199068     0.35200
C1101       C  0.35107354  0.85466952  0.94122489    -0.26500
C1102       C  0.31996067  0.85236907  0.93867211    -0.14600
C1103       C  0.30702948  0.81370610  0.92413590     0.36000
C1104       C  0.32528656  0.78170967  0.90874670    -0.26000
C1105       C  0.35644702  0.78860361  0.90619095    -0.15200
C1106       C  0.36931703  0.82214843  0.92643679     0.37100
N1107       N  0.40103145  0.82556531  0.93024558    -0.89500
H1108       H  0.36136290  0.88226365  0.95443780     0.18200
H1109       H  0.31454961  0.75254250  0.89788021     0.18200
N1110       N  0.27529008  0.80752842  0.92389291    -0.88500
H1111       H  0.40584858  0.82201734  0.95370236     0.35600
H1112       H  0.40790257  0.85822342  0.92366849     0.40700
H1113       H  0.27061748  0.77588187  0.93378054     0.40300
H1114       H  0.26816964  0.80613092  0.90090895     0.35200
C1115       C  0.12771397  0.19499810  0.91320221    -0.26500
C1116       C  0.14286751  0.22603319  0.89368190    -0.14600
C1117       C  0.17480695  0.22226705  0.89213813     0.36000
C1118       C  0.18983320  0.19195540  0.91146515    -0.26000
C1119       C  0.17441852  0.16253193  0.93085200    -0.15200
C1120       C  0.14304474  0.16386256  0.93181662     0.37100
N1121       N  0.12688935  0.13366017  0.95180166    -0.89500
H1122       H  0.10352576  0.19587814  0.91441784     0.18200
H1123       H  0.21385636  0.18899231  0.90962665     0.18200
N1124       N  0.19234794  0.24489444  0.86922833    -0.88500
H1125       H  0.10384478  0.13879601  0.94977847     0.35600
H1126       H  0.13259613  0.14236685  0.97455043     0.40700
H1127       H  0.20875692  0.26443345  0.88054366     0.40300
H1128       H  0.20336087  0.22015938  0.85582779     0.35200
C1129       C  0.34497012  0.85537151  0.56781719    -0.26500
C1130       C  0.31417850  0.85887195  0.57246640    -0.14600
C1131       C  0.29998636  0.83002647  0.59358756     0.36000
C1132       C  0.31682794  0.79739040  0.60938964    -0.26000
C1133       C  0.34802171  0.79242234  0.60464528    -0.15200
C1134       C  0.36195544  0.82297983  0.58359558     0.37100
N1135       N  0.39354099  0.82138965  0.57814414    -0.89500
H1136       H  0.35601518  0.87819760  0.55189331     0.18200
H1137       H  0.30536359  0.77813991  0.62685672     0.18200
N1138       N  0.26864790  0.83533944  0.59992304    -0.88500
H1139       H  0.40258763  0.85338519  0.58396189     0.35600
H1140       H  0.39712243  0.81569833  0.55455625     0.40700
H1141       H  0.26560021  0.86764536  0.61005493     0.40300
H1142       H  0.26144310  0.81150174  0.61610362     0.35200
C1143       C  0.15756944  0.77792826  0.91669272    -0.26500
C1144       C  0.13423004  0.79485542  0.89801174    -0.14600
C1145       C  0.12629305  0.84166640  0.90303807     0.36000
C1146       C  0.14510385  0.87063682  0.92003564    -0.26000
C1147       C  0.17103022  0.85491626  0.93450735    -0.15200
C1148       C  0.17618092  0.80712527  0.93428204     0.47500
N1149       N  0.20018175  0.78703075  0.95109932    -0.89500
H1150       H  0.16253239  0.74171389  0.91625369     0.18200
H1151       H  0.13880134  0.90629249  0.92207086     0.18200
N1152       N  0.09868611  0.86055609  0.89238559    -0.88500
H1153       H  0.19735825  0.79476839  0.97454634     0.35600
H1154       H  0.22021646  0.80129456  0.94347347     0.40700
H1155       H  0.10361199  0.88873720  0.87865672     0.40300
H1156       H  0.08673951  0.87271959  0.91154623     0.35200
C1157       C  0.41202532  0.23996975  0.83575032    -0.26500
C1158       C  0.38781877  0.22314679  0.85346121    -0.14600
C1159       C  0.37882801  0.17688997  0.84733283     0.36000
C1160       C  0.39660690  0.14845717  0.82903380    -0.26000
C1161       C  0.42297029  0.16388996  0.81515527    -0.15200
C1162       C  0.43007501  0.21078305  0.81755436     0.37100
N1163       N  0.45579029  0.22895230  0.80222646    -0.89500
H1164       H  0.41800965  0.27582872  0.83727552     0.18200
H1165       H  0.38932901  0.11331915  0.82582563     0.18200
N1166       N  0.35138416  0.15780969  0.85859264    -0.88500
H1167       H  0.46969197  0.24405131  0.81890872     0.35600
H1168       H  0.44860582  0.25461290  0.78743021     0.40700
H1169       H  0.35650235  0.12909363  0.87167521     0.40300
H1170       H  0.33875441  0.14632517  0.83968683     0.35200
C1171       C  0.32094943  0.23523977  0.90358993    -0.26500
C1172       C  0.35200118  0.22895065  0.89966437    -0.14600
C1173       C  0.36590046  0.19498580  0.91812471     0.36000
C1174       C  0.34845315  0.16414798  0.93495058    -0.26000
C1175       C  0.31727945  0.16711515  0.93523384    -0.15200
C1176       C  0.30357990  0.20433427  0.92068052     0.37100
N1177       N  0.27182095  0.20970617  0.92185366    -0.89500
H1178       H  0.30963567  0.26340367  0.89285195     0.18200
H1179       H  0.35940401  0.13681175  0.94719491     0.18200
N1180       N  0.39769507  0.18915151  0.91790927    -0.88500
H1181       H  0.26392714  0.20950738  0.89913677     0.35600
H1182       H  0.26723759  0.24180772  0.93161951     0.40700
H1183       H  0.40539254  0.19247986  0.94061819     0.40300
H1184       H  0.40246347  0.15597885  0.91011221     0.35200
C1185       C  0.08190917  0.32361401  0.62362271    -0.26500
C1186       C  0.10148549  0.29377600  0.60739428    -0.14600
C1187       C  0.10280305  0.29847823  0.57452594     0.36000
C1188       C  0.08345654  0.32862164  0.55963891    -0.26000
C1189       C  0.06399357  0.35691443  0.57617509    -0.15200
C1190       C  0.06304017  0.35429124  0.60867168     0.37100
N1191       N  0.04328027  0.38191264  0.62732492    -0.89500
H1192       H  0.08102329  0.32254254  0.64861067     0.18200
H1193       H  0.08512405  0.33209894  0.53479367     0.18200
N1194       N  0.12519854  0.27664241  0.55590760    -0.88500
H1195       H  0.02921054  0.35971964  0.63933418     0.35600
H1196       H  0.02919360  0.40178781  0.61386085     0.40700
H1197       H  0.13787588  0.30185916  0.54502533     0.40300
H1198       H  0.11444522  0.25723947  0.53871716     0.35200
C1199       C  0.10475342  0.72549757  0.57648208    -0.26500
C1200       C  0.10604912  0.72477717  0.60926849    -0.14600
C1201       C  0.08876760  0.69040418  0.62418635     0.36000
C1202       C  0.07041934  0.66070168  0.60699874    -0.26000
C1203       C  0.06833866  0.66369713  0.57491346    -0.15200
C1204       C  0.08560778  0.69642248  0.55941136     0.37100
N1205       N  0.08497952  0.69830249  0.52623583    -0.89500
H1206       H  0.11913484  0.74759221  0.56340376     0.18200
H1207       H  0.05764587  0.63479885  0.61895695     0.18200
N1208       N  0.08940130  0.68589053  0.65708315    -0.88500
H1209       H  0.10025519  0.72253258  0.51818567     0.35600
H1210       H  0.06381991  0.70982869  0.51976810     0.40700
H1211       H  0.09664048  0.65287609  0.66212420     0.40300
H1212       H  0.06759512  0.68953875  0.66547825     0.35200
C1213       C  0.40123358  0.68471084  0.55687280    -0.26500
C1214       C  0.42280857  0.65997557  0.57286534    -0.14600
C1215       C  0.42495181  0.66540500  0.60509299     0.36000
C1216       C  0.40688762  0.69727164  0.62034821    -0.26000
C1217       C  0.38612045  0.72490727  0.60453346    -0.15200
C1218       C  0.38196617  0.71527839  0.57238344     0.37100
N1219       N  0.35706372  0.73294845  0.55561369    -0.89500
H1220       H  0.39814036  0.67830623  0.53236817     0.18200
H1221       H  0.40947800  0.70104628  0.64508000     0.18200
N1222       N  0.44549304  0.63918521  0.62295842    -0.88500
H1223       H  0.34412132  0.70534331  0.54769235     0.35600
H1224       H  0.36524129  0.75004468  0.53630616     0.40700
H1225       H  0.46705042  0.64434724  0.61427398     0.40300
H1226       H  0.44001770  0.60458221  0.62044281     0.35200
C1227       C  0.05925090  0.70769443  0.93275381    -0.26500
C1228       C  0.06895749  0.66217903  0.93418393    -0.14600
C1229       C  0.09636454  0.65095889  0.91989627     0.36000
C1230       C  0.11138558  0.68317589  0.90197238    -0.26000
C1231       C  0.09997827  0.72757110  0.89680770    -0.15200
C1232       C  0.07488794  0.74053352  0.91526827     0.37100
N1233       N  0.06505992  0.78694535  0.91671398    -0.89500
H1234       H  0.03920917  0.71799448  0.94504061     0.18200
H1235       H  0.13265680  0.67261185  0.89247393     0.18200
N1236       N  0.10967080  0.60693771  0.92394614    -0.88500
H1237       H  0.06652272  0.79818304  0.93968401     0.35600
H1238       H  0.04252262  0.78789398  0.91031132     0.40700
H1239       H  0.11254801  0.59172830  0.90216239     0.40300
H1240       H  0.13079327  0.61167249  0.93386936     0.35200
C1241       C  0.44342340  0.69886279  0.92218940    -0.26500
C1242       C  0.42802786  0.66272761  0.93612596    -0.14600
C1243       C  0.39658106  0.66408705  0.93725788     0.36000
C1244       C  0.38133613  0.69850668  0.92184767    -0.26000
C1245       C  0.39637878  0.73155645  0.90378829    -0.15200
C1246       C  0.42812694  0.73372558  0.90667058     0.37100
N1247       N  0.44508908  0.77189076  0.89581546    -0.89500
H1248       H  0.46764862  0.69995704  0.92316491     0.18200
H1249       H  0.35710822  0.69749114  0.92216339     0.18200
N1250       N  0.37947149  0.63146722  0.95429706    -0.88500
H1251       H  0.46199822  0.75962613  0.88127345     0.35600
H1252       H  0.45560933  0.78739916  0.91482224     0.40700
H1253       H  0.38705943  0.63175599  0.97713235     0.40300
H1254       H  0.38284786  0.59897293  0.94467366     0.35200
C1255       C  0.08646883  0.32898981  0.94263098    -0.26500
C1256       C  0.06517012  0.35431431  0.92671509    -0.14600
C1257       C  0.06260415  0.34877236  0.89446039     0.36000
C1258       C  0.08136678  0.31782308  0.87913102    -0.26000
C1259       C  0.10253266  0.29044989  0.89473106    -0.15200
C1260       C  0.10580227  0.29861457  0.92717095     0.37100
N1261       N  0.12990704  0.27974186  0.94452839    -0.89500
H1262       H  0.08935833  0.33484643  0.96723086     0.18200
H1263       H  0.07899175  0.31455207  0.85435691     0.18200
N1264       N  0.04136451  0.37380758  0.87638067    -0.88500
H1265       H  0.14272865  0.30667109  0.95365650     0.35600
H1266       H  0.12082788  0.26162862  0.96297862     0.40700
H1267       H  0.02770352  0.39455286  0.89011378     0.40300
H1268       H  0.02710351  0.34997973  0.86571297     0.35200
C1269       C  0.37644618  0.32126584  0.58550435    -0.26500
C1270       C  0.39103825  0.28789439  0.60337546    -0.14600
C1271       C  0.42195594  0.28069487  0.59700443     0.36000
C1272       C  0.43799943  0.31300173  0.57957810    -0.26000
C1273       C  0.42366386  0.35086669  0.56676706    -0.15200
C1274       C  0.39221738  0.35305217  0.56813839     0.37100
N1275       N  0.37554096  0.38725010  0.55227801    -0.89500
H1276       H  0.35253808  0.32523015  0.58684980     0.18200
H1277       H  0.46188765  0.30875596  0.57645438     0.18200
N1278       N  0.43690437  0.23984001  0.60607140    -0.88500
H1279       H  0.38070913  0.41932410  0.56172734     0.35600
H1280       H  0.38165545  0.38645511  0.52897457     0.40700
H1281       H  0.45616843  0.24904723  0.61836636     0.40300
H1282       H  0.44382465  0.22254839  0.58604352     0.35200
C1283       C  0.39743166  0.35419476  0.93097377    -0.26500
C1284       C  0.42846063  0.34928124  0.93127510    -0.14600
C1285       C  0.44133734  0.31033122  0.91715141     0.36000
C1286       C  0.42294074  0.27934908  0.90048658    -0.26000
C1287       C  0.39169577  0.28620705  0.89769626    -0.15200
C1288       C  0.37903363  0.32275504  0.91543110     0.37100
N1289       N  0.34733113  0.32978155  0.91627861    -0.89500
H1290       H  0.38723651  0.38299895  0.94292447     0.18200
H1291       H  0.43336638  0.24984771  0.88988595     0.18200
N1292       N  0.47303203  0.30279819  0.91924621    -0.88500
H1293       H  0.34280918  0.36241771  0.90793998     0.35600
H1294       H  0.34039002  0.32882400  0.93931005     0.40700
H1295       H  0.48376835  0.32934325  0.90767413     0.40300
H1296       H  0.47896918  0.27248106  0.90776664     0.35200
C1297       C  0.36675187  0.68303275  0.85562451    -0.26500
C1298       C  0.35747242  0.72900001  0.85992364    -0.14600
C1299       C  0.33231839  0.74282560  0.84147506     0.36000
C1300       C  0.31575864  0.70988062  0.82454102    -0.26000
C1301       C  0.32378277  0.66361654  0.82376255    -0.15200
C1302       C  0.35046059  0.65089630  0.83851845     0.37100
N1303       N  0.36178741  0.60522184  0.83592110    -0.89500
H1304       H  0.38751433  0.67083357  0.86514781     0.18200
H1305       H  0.29608455  0.72081120  0.81207854     0.18200
N1306       N  0.32228530  0.78925093  0.83899759    -0.88500
H1307       H  0.36377859  0.59203541  0.85813950     0.35600
H1308       H  0.38313807  0.60661888  0.82610085     0.40700
H1309       H  0.33499030  0.81185236  0.85202744     0.40300
H1310       H  0.30047458  0.79106692  0.84766481     0.35200
C1311       C  0.15318683  0.33877759  0.80942398    -0.26500
C1312       C  0.17481244  0.36358827  0.82574723    -0.14600
C1313       C  0.17786874  0.35729266  0.85758654     0.36000
C1314       C  0.16024585  0.32413827  0.87210796    -0.26000
C1315       C  0.14079419  0.29453478  0.85530858    -0.15200
C1316       C  0.13568334  0.30526159  0.82370113     0.37100
N1317       N  0.11179627  0.28492192  0.80622881    -0.89500
H1318       H  0.14882022  0.34721667  0.78570984     0.18200
H1319       H  0.16274943  0.31972636  0.89673201     0.18200
N1320       N  0.19892875  0.38447513  0.87501564    -0.88500
H1321       H  0.12090870  0.26898700  0.78665180     0.35600
H1322       H  0.09762653  0.31093060  0.79883610     0.40700
H1323       H  0.22035139  0.37632666  0.86700881     0.40300
H1324       H  0.19832831  0.37577273  0.89833540     0.35200
C1325       C  0.34751005  0.36995160  0.67465852    -0.26500
C1326       C  0.32179411  0.35433624  0.68980540    -0.14600
C1327       C  0.31558949  0.30692019  0.68895824     0.36000
C1328       C  0.33329471  0.27773813  0.67016929    -0.26000
C1329       C  0.35625922  0.29483849  0.65091206    -0.15200
C1330       C  0.36492123  0.34143966  0.65596951     0.37100
N1331       N  0.39180204  0.36066788  0.64345304    -0.89500
H1332       H  0.35439242  0.40541374  0.67691724     0.18200
H1333       H  0.32779704  0.24167249  0.66889605     0.18200
N1334       N  0.29091709  0.28858909  0.70613898    -0.88500
H1335       H  0.38600136  0.38907837  0.63036999     0.35600
H1336       H  0.40509167  0.37261660  0.66173655     0.40700
H1337       H  0.29612519  0.29222281  0.72957598     0.40300
H1338       H  0.28863685  0.25349345  0.70181363     0.35200
C1339       C  0.18018562  0.65973336  0.65074576    -0.26500
C1340       C  0.18187430  0.66413453  0.68284087    -0.14600
C1341       C  0.16589906  0.69903611  0.69805346     0.36000
C1342       C  0.14799214  0.72852745  0.68069878    -0.26000
C1343       C  0.14705047  0.72611538  0.64797391    -0.15200
C1344       C  0.16338239  0.69011994  0.63324991     0.37100
N1345       N  0.16320494  0.68444461  0.60031745    -0.89500
H1346       H  0.19220867  0.63243390  0.63902619     0.18200
H1347       H  0.13444373  0.75272150  0.69336355     0.18200
N1348       N  0.16713527  0.70350721  0.73115559    -0.88500
H1349       H  0.15459405  0.65196917  0.59506161     0.35600
H1350       H  0.18526268  0.68554842  0.59234871     0.40700
H1351       H  0.15733475  0.67427312  0.74049050     0.40300
H1352       H  0.15439173  0.73132116  0.73883806     0.35200
C1353       C  0.32661866  0.69881300  0.63026887    -0.26500
C1354       C  0.34820063  0.72697592  0.64521853    -0.14600
C1355       C  0.35358943  0.71864446  0.67720279     0.36000
C1356       C  0.33570636  0.68742094  0.69312543    -0.26000
C1357       C  0.31379593  0.66143856  0.67808886    -0.15200
C1358       C  0.30901569  0.66721079  0.64619964     0.37100
N1359       N  0.28657202  0.64200578  0.62920730    -0.89500
H1360       H  0.32305560  0.70193752  0.60566796     0.18200
H1361       H  0.34016002  0.68160123  0.71736885     0.18200
N1362       N  0.37844661  0.73834341  0.69351815    -0.88500
H1363       H  0.27141230  0.66567993  0.62046003     0.35600
H1364       H  0.27415318  0.62066115  0.64348719     0.40700
H1365       H  0.39215067  0.71187269  0.70108660     0.40300
H1366       H  0.37029786  0.75568571  0.71303313     0.35200
C1367       C  0.36510860  0.33335939  0.84809880    -0.26500
C1368       C  0.35338736  0.28928869  0.85401922    -0.14600
C1369       C  0.32761586  0.27638296  0.83660771     0.36000
C1370       C  0.31131916  0.30951264  0.82032238    -0.26000
C1371       C  0.32085211  0.35529457  0.81942764    -0.15200
C1372       C  0.34899123  0.36634919  0.83225369     0.37100
N1373       N  0.36172765  0.41111073  0.82921537    -0.89500
H1374       H  0.38700056  0.34350153  0.85635149     0.18200
H1375       H  0.29080905  0.29929448  0.80878623     0.18200
N1376       N  0.31768901  0.22993491  0.83511843    -0.88500
H1377       H  0.38235701  0.40796671  0.81801782     0.35600
H1378       H  0.36556470  0.42458503  0.85135841     0.40700
H1379       H  0.31815754  0.21925946  0.81198495     0.40300
H1380       H  0.29545416  0.22859341  0.84256041     0.35200
C1381       C  0.17049484  0.73980403  0.85222683    -0.26500
C1382       C  0.13907920  0.73287914  0.85346734    -0.14600
C1383       C  0.12702553  0.69793247  0.83385042     0.36000
C1384       C  0.14594747  0.66788417  0.81774300    -0.26000
C1385       C  0.17705809  0.67233642  0.81926616    -0.15200
C1386       C  0.18947395  0.71006612  0.83537155     0.37100
N1387       N  0.22133532  0.71698896  0.83572286    -0.89500
H1388       H  0.18066304  0.76861951  0.86401084     0.18200
H1389       H  0.13613611  0.64000407  0.80439855     0.18200
N1390       N  0.09534698  0.69123188  0.83142727    -0.88500
H1391       H  0.22702211  0.74486480  0.84994365     0.35600
H1392       H  0.22786910  0.72572389  0.81338810     0.40700
H1393       H  0.09028310  0.65795694  0.83829909     0.40300
H1394       H  0.08935172  0.69424210  0.80822167     0.35200
C1395       C  0.17498969  0.36185518  0.65185397    -0.26500
C1396       C  0.17556855  0.35854526  0.68394881    -0.14600
C1397       C  0.15781116  0.32537549  0.69837003     0.36000
C1398       C  0.13948697  0.29644185  0.68031895    -0.26000
C1399       C  0.14048377  0.29668302  0.64766969    -0.15200
C1400       C  0.15808212  0.33152341  0.63368452     0.37100
N1401       N  0.15957581  0.33564490  0.60083383    -0.89500
H1402       H  0.18818900  0.38800166  0.64063221     0.18200
H1403       H  0.12451356  0.27390438  0.69236203     0.18200
N1404       N  0.15752062  0.32224070  0.73136477    -0.88500
H1405       H  0.18191098  0.33281631  0.59394561     0.35600
H1406       H  0.15216651  0.36830644  0.59509572     0.40700
H1407       H  0.17864061  0.31111009  0.73826774     0.40300
H1408       H  0.14237396  0.29714762  0.73840025     0.35200
O1409       O  0.68478303  0.44052732  0.31587896    -0.75500
O1410       O  0.70944263  0.38457163  0.28872433    -0.54400
C1411       C  0.69035057  0.39846344  0.30911480     0.78200
O1412       O  0.69015892  0.58841699  0.19168639    -0.60100
O1413       O  0.71389145  0.64348908  0.22060235    -0.53100
C1414       C  0.69546988  0.63021704  0.19940031     0.70300
O1415       O  0.68870665  0.43660372  0.19008720    -0.74600
O1416       O  0.71181031  0.38242314  0.21901569    -0.55200
C1417       C  0.69374575  0.39499026  0.19757549     0.76300
O1418       O  0.68549900  0.59432351  0.31159610    -0.59800
O1419       O  0.71456276  0.64712173  0.28722194    -0.52900
C1420       C  0.69304182  0.63584030  0.30538761     0.72900
Zr1421     Zr  0.70093175  0.51582269  0.29917637     2.54700
O1422       O  0.64655651  0.51637246  0.29612928    -0.80400
O1423       O  0.70013820  0.51881826  0.35539722    -0.93800
Zr1424     Zr  0.70356072  0.51232295  0.20793559     2.64700
O1425       O  0.64908793  0.51193649  0.20967485    -0.98700
O1426       O  0.70534535  0.51250476  0.15175485    -0.80800
O1427       O  0.70076184  0.46907430  0.25376065    -0.84100
O1428       O  0.70237023  0.55854283  0.25322609    -2.18900
O1429       O  0.80624865  0.58930939  0.31454492    -0.67500
O1430       O  0.78244557  0.64459905  0.28755510    -0.52100
C1431       C  0.80203689  0.63130365  0.30732959     0.71200
O1432       O  0.80676116  0.43275604  0.19810575    -0.60400
O1433       O  0.77953530  0.37851881  0.22275834    -0.52400
C1434       C  0.80062432  0.39081355  0.20425038     0.73000
O1435       O  0.80790316  0.58588123  0.19389561    -0.71800
O1436       O  0.78025284  0.64148204  0.21787538    -0.50500
C1437       C  0.80053748  0.62785767  0.19871210     0.74400
O1438       O  0.80498141  0.43519268  0.31398063    -0.67200
O1439       O  0.77859512  0.38038655  0.28771862    -0.54400
C1440       C  0.79931226  0.39314774  0.30669253     0.72800
Zr1441     Zr  0.78885782  0.51256799  0.30150483     2.77500
O1442       O  0.84306901  0.50709150  0.30503264    -0.97900
O1443       O  0.78373786  0.51626833  0.35744624    -0.78700
Zr1444     Zr  0.79156141  0.51050702  0.21041580     2.70100
O1445       O  0.84587132  0.51024996  0.21461192    -0.80000
O1446       O  0.79168354  0.50628864  0.15423615    -0.99100
Zr1447     Zr  0.74485416  0.42327051  0.25482424     2.21500
Zr1448     Zr  0.74768868  0.60213149  0.25429100     2.11100
O1449       O  0.79175239  0.55624863  0.25581854    -2.47800
O1450       O  0.78987411  0.46708998  0.25600101    -0.79800
O1451       O  0.74569750  0.55954020  0.30102944    -0.72000
O1452       O  0.74703745  0.46645325  0.20845353    -2.32900
O1453       O  0.74421524  0.46892428  0.30118882    -2.29100
O1454       O  0.74815007  0.55647050  0.20820809    -0.73700
H1455       H  0.68511490  0.57826987  0.25256326     0.78300
H1456       H  0.74746713  0.44663654  0.19044012     0.79400
H1457       H  0.80961312  0.57492924  0.25590478     0.81600
H1458       H  0.74372306  0.44992210  0.31922751     0.79200
H1459       H  0.68515224  0.52238714  0.14533296     0.42200
H1460       H  0.77574601  0.52762748  0.14792105     0.41200
H1461       H  0.85287304  0.49471213  0.19550055     0.40900
H1462       H  0.85083361  0.53351508  0.29341495     0.38800
H1463       H  0.80391155  0.52478524  0.36505817     0.41900
H1464       H  0.71196474  0.54642546  0.36092628     0.36700
H1465       H  0.64161878  0.49235881  0.28059963     0.42800
H1466       H  0.64369971  0.53961331  0.22183322     0.39200
H1467       H  0.84779453  0.51412861  0.32690813     0.44200
H1468       H  0.71282910  0.49298418  0.36182487     0.42900
H1469       H  0.64284137  0.51885406  0.18832614     0.43000
H1470       H  0.81054943  0.52142604  0.14800453     0.43400
O1471       O  0.93962578  0.43193423  0.44040008    -0.75500
O1472       O  0.96676484  0.37793757  0.46563313    -0.54400
C1473       C  0.94631432  0.39010356  0.44650388     0.78200
O1474       O  0.55600413  0.58591324  0.44480202    -0.60100
O1475       O  0.52961031  0.64046462  0.47088761    -0.53100
C1476       C  0.55014422  0.62786333  0.45172401     0.70300
O1477       O  0.55422030  0.43211307  0.43968727    -0.74600
O1478       O  0.52948517  0.37783758  0.46736520    -0.55200
C1479       C  0.54831413  0.39043110  0.44669009     0.76300
O1480       O  0.93881567  0.58721880  0.44313829    -0.59800
O1481       O  0.96594222  0.64124588  0.46958045    -0.52900
C1482       C  0.94535680  0.62904243  0.45039221     0.72900
Zr1483     Zr  0.95588625  0.50963644  0.45495438     2.54700
O1484       O  0.96443191  0.51054485  0.39947784    -0.80400
O1485       O  0.90158261  0.51114622  0.45061864    -0.93800
Zr1486     Zr  0.53951095  0.50866729  0.45655380     2.64700
O1487       O  0.53632052  0.50856556  0.40040223    -0.98700
O1488       O  0.59392751  0.50723921  0.45514533    -0.80800
O1489       O  0.00007623  0.46498590  0.45529021    -0.84100
O1490       O  0.00005457  0.55456252  0.45641148    -2.18900
O1491       O  0.93446910  0.58142647  0.06045579    -0.67500
O1492       O  0.96249731  0.63571561  0.03615817    -0.52100
C1493       C  0.94166765  0.62314903  0.05475803     0.71200
O1494       O  0.55457123  0.42951254  0.06470619    -0.60400
O1495       O  0.53055258  0.37532203  0.03527639    -0.52400
C1496       C  0.54844456  0.38785085  0.05707486     0.73000
O1497       O  0.55622411  0.58296461  0.06426204    -0.71800
O1498       O  0.53211270  0.63652731  0.03575325    -0.50500
C1499       C  0.55079817  0.62446685  0.05661864     0.74400
O1500       O  0.93693901  0.42663541  0.05917111    -0.67200
O1501       O  0.96359805  0.37311406  0.03208100    -0.54400
C1502       C  0.94332432  0.38496607  0.05167852     0.72800
Zr1503     Zr  0.95211441  0.50488762  0.04679383     2.77500
O1504       O  0.95616710  0.50448583  0.10286218    -0.97900
O1505       O  0.89776396  0.50267206  0.04945417    -0.78700
Zr1506     Zr  0.54137553  0.50602729  0.04815514     2.70100
O1507       O  0.53656773  0.50469236  0.10413180    -0.80000
O1508       O  0.59585575  0.50649353  0.04949193    -0.99100
Zr1509     Zr  0.99621485  0.41781641  0.99910387     2.21500
Zr1510     Zr  0.99650017  0.59479157  0.00211526     2.11100
O1511       O  0.99633278  0.55020713  0.04797941    -2.47800
O1512       O  0.99629479  0.46051780  0.04639500    -0.79800
O1513       O  0.95136409  0.55076697  0.00202533    -0.72000
O1514       O  0.54345743  0.46166840  0.00186148    -2.32900
O1515       O  0.95114714  0.46161454  0.00020707    -2.29100
O1516       O  0.54342740  0.55006740  0.00259932    -0.73700
H1517       H  0.00053405  0.57425130  0.43868084     0.78300
H1518       H  0.56090685  0.44225674  0.00206534     0.79400
H1519       H  0.99645892  0.56969054  0.06616443     0.81600
H1520       H  0.93377680  0.44188126  0.99995925     0.79200
H1521       H  0.59982324  0.49416192  0.47518575     0.42200
H1522       H  0.60181859  0.47945133  0.03697524     0.41200
H1523       H  0.55361232  0.52319724  0.11194484     0.40900
H1524       H  0.96890156  0.47776231  0.10732612     0.38800
H1525       H  0.89113330  0.50815312  0.02803666     0.41900
H1526       H  0.89453619  0.48229642  0.45988924     0.36700
H1527       H  0.94469545  0.51804457  0.39056384     0.42800
H1528       H  0.51470613  0.50540870  0.39589996     0.39200
H1529       H  0.96879418  0.53132473  0.10819163     0.44200
H1530       H  0.89754834  0.50736173  0.42825563     0.42900
H1531       H  0.54137374  0.54015389  0.39430555     0.43000
H1532       H  0.60174652  0.53293153  0.03678701     0.43400
C1533       C  0.86988248  0.25918769  0.37722209    -0.02700
O1534       O  0.80602109  0.09042917  0.44409598    -0.75500
O1535       O  0.77768145  0.14340104  0.46982108    -0.54400
C1536       C  0.79861929  0.13212939  0.45093174     0.78200
O1537       O  0.68436321  0.93298900  0.44390697    -0.60100
O1538       O  0.71087755  0.87863305  0.46868604    -0.53100
C1539       C  0.68986020  0.89100425  0.45038936     0.70300
O1540       O  0.68621751  0.08676741  0.44116892    -0.74600
O1541       O  0.71266569  0.14100163  0.46817802    -0.55200
C1542       C  0.69271009  0.12840947  0.44842793     0.76300
O1543       O  0.80889037  0.93261582  0.44679556    -0.59800
O1544       O  0.77876196  0.87921903  0.46916980    -0.52900
C1545       C  0.80115456  0.89090030  0.45246943     0.72900
Zr1546     Zr  0.79095345  0.01123401  0.45656247     2.54700
O1547       O  0.79031017  0.00823306  0.40038235    -0.80400
O1548       O  0.84546914  0.01338207  0.45667301    -0.93800
Zr1549     Zr  0.70213181  0.01026783  0.45492426     2.64700
O1550       O  0.70390652  0.00702258  0.39874909    -0.98700
O1551       O  0.64776664  0.01403277  0.45318942    -0.80800
O1552       O  0.74641417  0.05533313  0.45524920    -0.84100
O1553       O  0.74654282  0.96603947  0.45438513    -2.18900
O1554       O  0.80269186  0.93392880  0.06465554    -0.67500
O1555       O  0.77916000  0.87972803  0.03475128    -0.52100
C1556       C  0.79739718  0.89228882  0.05625265     0.71200
O1557       O  0.68290696  0.08366465  0.06081063    -0.60400
O1558       O  0.71092613  0.13810928  0.03671859    -0.52400
C1559       C  0.69010955  0.12523171  0.05519741     0.73000
O1560       O  0.68144896  0.93108900  0.05670841    -0.71800
O1561       O  0.71220204  0.87796402  0.03444214    -0.50500
C1562       C  0.68985767  0.88970412  0.05146952     0.74400
O1563       O  0.80444821  0.08807179  0.06331683    -0.67200
O1564       O  0.77729849  0.14127618  0.03744964    -0.54400
C1565       C  0.79786741  0.12966977  0.05657950     0.72800
Zr1566     Zr  0.78750698  0.01052976  0.04974579     2.77500
O1567       O  0.78047705  0.01309769  0.10548760    -0.97900
O1568       O  0.84179814  0.00954939  0.05369232    -0.78700
Zr1569     Zr  0.69910701  0.00798910  0.04550484     2.70100
O1570       O  0.69861219  0.00505118  0.10167387    -0.80000
O1571       O  0.64474396  0.01112521  0.04244790    -0.99100
Zr1572     Zr  0.74497393  0.09738404  0.00274655     2.21500
Zr1573     Zr  0.74538422  0.92101750  0.00131668     2.11100
O1574       O  0.74359707  0.96461618  0.04812537    -2.47800
O1575       O  0.74294025  0.05411661  0.04894683    -0.79800
O1576       O  0.79012116  0.96577608  0.00366305    -0.72000
O1577       O  0.70029494  0.05258319  0.00027848    -2.32900
O1578       O  0.79003578  0.05408523  0.00412405    -2.29100
O1579       O  0.70057067  0.96420655  0.99938057    -0.73700
H1580       H  0.74689502  0.94587116  0.43653820     0.78300
H1581       H  0.68272277  0.07166247  0.99976188     0.79400
H1582       H  0.74295395  0.94480450  0.06576319     0.81600
H1583       H  0.80737125  0.07387316  0.00483517     0.79200
H1584       H  0.64173274  0.02103418  0.47473128     0.42200
H1585       H  0.63874122  0.98260163  0.03150172     0.41200
H1586       H  0.71531777  0.98458180  0.10711240     0.40900
H1587       H  0.77463127  0.98159191  0.11105314     0.38800
H1588       H  0.84886741  0.01503461  0.03239362     0.41900
H1589       H  0.85138149  0.98995425  0.47175379     0.36700
H1590       H  0.81008562  0.99560115  0.39459930     0.42800
H1591       H  0.71730713  0.98108685  0.39375242     0.39200
H1592       H  0.80092679  0.01690129  0.11393604     0.44200
H1593       H  0.85083416  0.04279520  0.46685773     0.42900
H1594       H  0.68376617  0.99612309  0.39253033     0.43000
H1595       H  0.63785050  0.00697568  0.06395748     0.43400
C1596       C  0.61611005  0.76211264  0.37629089    -0.02700
O1597       O  0.93518606  0.08652099  0.19260083    -0.75500
O1598       O  0.96169007  0.14146246  0.21834165    -0.54400
C1599       C  0.94044581  0.12849546  0.19999942     0.78200
O1600       O  0.93815704  0.93410817  0.30866349    -0.60100
O1601       O  0.96046137  0.87741613  0.28092121    -0.53100
C1602       C  0.94216661  0.89171918  0.30188643     0.70300
O1603       O  0.93528539  0.08805434  0.30626551    -0.74600
O1604       O  0.96343059  0.14282400  0.28333686    -0.55200
C1605       C  0.94198654  0.13016227  0.30123245     0.76300
O1606       O  0.94006787  0.93437031  0.18272043    -0.59800
O1607       O  0.96065691  0.87971930  0.21318122    -0.52900
C1608       C  0.94376564  0.89271656  0.19095756     0.72900
Zr1609     Zr  0.95397205  0.01014669  0.20173849     2.54700
O1610       O  0.89975035  0.00302413  0.19952432    -0.80400
O1611       O  0.95729281  0.01964105  0.14612514    -0.93800
Zr1612     Zr  0.95098741  0.01075600  0.29290247     2.64700
O1613       O  0.89664266  0.00871735  0.28889634    -0.98700
O1614       O  0.94791491  0.01557988  0.34895466    -0.80800
O1615       O  0.95197410  0.05475368  0.24769809    -0.84100
O1616       O  0.95064020  0.96590546  0.24693948    -2.18900
O1617       O  0.55698727  0.93174511  0.19185321    -0.67500
O1618       O  0.52758170  0.87787445  0.21480238    -0.52100
C1619       C  0.54924018  0.89016742  0.19709855     0.71200
O1620       O  0.55580156  0.08360833  0.31113187    -0.60400
O1621       O  0.52977244  0.13912885  0.28597990    -0.52400
C1622       C  0.54969348  0.12563602  0.30531027     0.73000
O1623       O  0.55112574  0.92824170  0.30996002    -0.71800
O1624       O  0.52385733  0.87528058  0.28264124    -0.50500
C1625       C  0.54382206  0.88665724  0.30268154     0.74400
O1626       O  0.56045766  0.08524106  0.19449239    -0.67200
O1627       O  0.53076526  0.13985814  0.21687284    -0.54400
C1628       C  0.55264855  0.12702413  0.19951738     0.72800
Zr1629     Zr  0.54171953  0.00885665  0.20628335     2.77500
O1630       O  0.59603503  0.00685502  0.21068852    -0.97900
O1631       O  0.54314992  0.01063750  0.15013522    -0.78700
Zr1632     Zr  0.53746983  0.00725282  0.29718817     2.70100
O1633       O  0.59157954  0.00349339  0.30273039    -0.80000
O1634       O  0.52989998  0.00854354  0.35284730    -0.99100
Zr1635     Zr  0.49646525  0.09891465  0.25018633     2.21500
Zr1636     Zr  0.99459070  0.92006265  0.24788748     2.11100
O1637       O  0.53912390  0.96330337  0.25099374    -2.47800
O1638       O  0.54053769  0.05301312  0.25238405    -0.79800
O1639       O  0.99758599  0.96430689  0.20206088    -0.72000
O1640       O  0.49447575  0.05471446  0.29619885    -2.32900
O1641       O  0.49806475  0.05448358  0.20344654    -2.29100
O1642       O  0.99408636  0.96413620  0.29481297    -0.73700
H1643       H  0.93284393  0.94705308  0.24620388     0.78300
H1644       H  0.49400365  0.07425469  0.31435037     0.79400
H1645       H  0.55622041  0.94324737  0.25152442     0.81600
H1646       H  0.49900511  0.07393908  0.18563057     0.79200
H1647       H  0.96765514  0.00489031  0.35616691     0.42200
H1648       H  0.51361605  0.98616766  0.35634670     0.41200
H1649       H  0.59847387  0.98664708  0.28408425     0.40900
H1650       H  0.60031496  0.98017383  0.22375945     0.38800
H1651       H  0.56351207  0.00010411  0.14463186     0.41900
H1652       H  0.93700104  0.01202498  0.13841874     0.36700
H1653       H  0.89269548  0.01738136  0.21902448     0.42800
H1654       H  0.89171911  0.97757168  0.28118335     0.39200
H1655       H  0.60314552  0.99764623  0.18987153     0.44200
H1656       H  0.96993021  0.99391595  0.13889013     0.42900
H1657       H  0.88954227  0.00927241  0.31055184     0.43000
H1658       H  0.54798146  0.99378155  0.36126725     0.43400
C1659       C  0.86947726  0.75830488  0.12341698    -0.02700
C1660       C  0.62233702  0.26003498  0.12718758    -0.02700
C1661       C  0.87143533  0.26174000  0.12745021    -0.02700
C1662       C  0.62357973  0.75797350  0.12709541    -0.02700
C1663       C  0.62258326  0.25915451  0.37712686    -0.02700
C1664       C  0.87507966  0.76314604  0.38114294    -0.02700
C1665       C  0.59786580  0.16307302  0.31785126    -0.26500
C1666       C  0.56698503  0.16067758  0.32259781    -0.14600
C1667       C  0.55405807  0.18805925  0.34603638     0.36000
C1668       C  0.57222610  0.21815449  0.36322995    -0.26000
C1669       C  0.60334661  0.22381749  0.35745290    -0.15200
C1670       C  0.61618634  0.19265777  0.33526638     0.37100
N1671       N  0.64771815  0.18845466  0.33016823    -0.89500
H1672       H  0.60813261  0.14041525  0.30092033     0.18200
H1673       H  0.56137724  0.23564129  0.38222289     0.18200
N1674       N  0.52294042  0.18477977  0.35433716    -0.88500
H1675       H  0.65762180  0.17425543  0.34954785     0.35600
H1676       H  0.65730604  0.21998910  0.32524108     0.40700
H1677       H  0.51147387  0.16052103  0.34097090     0.40300
H1678       H  0.51309597  0.21639160  0.34996673     0.35200
C1679       C  0.60055905  0.16541911  0.18625481    -0.26500
C1680       C  0.56951759  0.16260608  0.18301295    -0.14600
C1681       C  0.55504996  0.19112338  0.16198746     0.36000
C1682       C  0.57192798  0.22234152  0.14470979    -0.26000
C1683       C  0.60335537  0.22738144  0.14841001    -0.15200
C1684       C  0.61750295  0.19691987  0.16931718     0.37100
N1685       N  0.64931954  0.19723585  0.17316725    -0.89500
H1686       H  0.61185775  0.14260222  0.20189774     0.18200
H1687       H  0.56004956  0.24076017  0.12722419     0.18200
N1688       N  0.52327751  0.18693779  0.15732106    -0.88500
H1689       H  0.65737243  0.16476746  0.16723797     0.35600
H1690       H  0.65408713  0.20328307  0.19650340     0.40700
H1691       H  0.51904771  0.15447519  0.14784645     0.40300
H1692       H  0.51579791  0.21057385  0.14119818     0.35200
C1693       C  0.92924892  0.81101184  0.31775573    -0.26500
C1694       C  0.92407216  0.85832908  0.31994314    -0.14600
C1695       C  0.90104391  0.87372133  0.33978881     0.36000
C1696       C  0.88610112  0.84313524  0.35862390    -0.26000
C1697       C  0.89244764  0.79586408  0.35888313    -0.15200
C1698       C  0.91324830  0.77979871  0.33624406     0.37100
N1699       N  0.91867379  0.73191151  0.33210828    -0.89500
H1700       H  0.94591792  0.79798778  0.30178167     0.18200
H1701       H  0.86849128  0.85796216  0.37239708     0.18200
N1702       N  0.89192193  0.92068947  0.34080931    -0.88500
H1703       H  0.94152545  0.72588686  0.33491843     0.35600
H1704       H  0.91309855  0.72296809  0.30937325     0.40700
H1705       H  0.89443668  0.93304110  0.36343615     0.40300
H1706       H  0.86925100  0.92225647  0.33499323     0.35200
C1707       C  0.59832176  0.85830449  0.18232591    -0.26500
C1708       C  0.56719274  0.85447379  0.18157324    -0.14600
C1709       C  0.55389561  0.81969590  0.16372839     0.36000
C1710       C  0.57213808  0.78986127  0.14643203    -0.26000
C1711       C  0.60400665  0.79191874  0.14732269    -0.15200
C1712       C  0.61675488  0.82860821  0.16547623     0.37100
N1713       N  0.64808246  0.83924081  0.16628500    -0.89500
H1714       H  0.60856991  0.88594316  0.19556431     0.18200
H1715       H  0.56051854  0.76627139  0.13138367     0.18200
N1716       N  0.52181653  0.81580222  0.16227201    -0.88500
H1717       H  0.65470804  0.85296054  0.14528053     0.35600
H1718       H  0.66076321  0.81071492  0.17167121     0.40700
H1719       H  0.51364297  0.84506500  0.15160532     0.40300
H1720       H  0.51537832  0.78793838  0.14839434     0.35200
C1721       C  0.90621432  0.83053780  0.19083001    -0.26500
C1722       C  0.92618644  0.85766426  0.17429353    -0.14600
C1723       C  0.92662111  0.85445011  0.14201379     0.36000
C1724       C  0.90806748  0.82266676  0.12685126    -0.26000
C1725       C  0.88880506  0.79276035  0.14311315    -0.15200
C1726       C  0.88661823  0.79994184  0.17575112     0.37100
N1727       N  0.86329538  0.77981741  0.19374766    -0.89500
H1728       H  0.90450380  0.83514783  0.21565220     0.18200
H1729       H  0.90922340  0.82056394  0.10191180     0.18200
N1730       N  0.94620996  0.88306102  0.12452990    -0.88500
H1731       H  0.85040715  0.80611943  0.20340964     0.35600
H1732       H  0.87310927  0.76194662  0.21183807     0.40700
H1733       H  0.93317260  0.90198502  0.10932179     0.40300
H1734       H  0.96030161  0.86197545  0.11140896     0.35200
C1735       C  0.92877255  0.20997663  0.18597006    -0.26500
C1736       C  0.92064573  0.16353814  0.18565563    -0.14600
C1737       C  0.89351957  0.15089333  0.17092579     0.36000
C1738       C  0.87770688  0.18325848  0.15392944    -0.26000
C1739       C  0.88831445  0.22839042  0.14969971    -0.15200
C1740       C  0.91246726  0.24245644  0.16908975     0.37100
N1741       N  0.92099953  0.28951827  0.17144758    -0.89500
H1742       H  0.94833314  0.22120911  0.19877683     0.18200
H1743       H  0.85651023  0.17250618  0.14429303     0.18200
N1744       N  0.88171437  0.10523005  0.17336305    -0.88500
H1745       H  0.94359547  0.29257673  0.16562214     0.35600
H1746       H  0.91869626  0.29985093  0.19452621     0.40700
H1747       H  0.86217181  0.10109298  0.16035884     0.40300
H1748       H  0.87571331  0.10046010  0.19643080     0.35200
C1749       C  0.59211026  0.85262544  0.31694332    -0.26500
C1750       C  0.56094139  0.84977765  0.31762573    -0.14600
C1751       C  0.54736305  0.81285610  0.33308424     0.36000
C1752       C  0.56515704  0.78238692  0.34985659    -0.26000
C1753       C  0.59639962  0.78898301  0.35293782    -0.15200
C1754       C  0.60987477  0.82248850  0.33370808     0.37100
N1755       N  0.64167295  0.82852896  0.33293151    -0.89500
H1756       H  0.60287401  0.87958404  0.30401916     0.18200
H1757       H  0.55407344  0.75420014  0.36098249     0.18200
N1758       N  0.51556665  0.80657521  0.33330851    -0.88500
H1759       H  0.64670648  0.86197005  0.34009070     0.35600
H1760       H  0.64877626  0.82448523  0.31006110     0.40700
H1761       H  0.50829191  0.80157209  0.31059051     0.40300
H1762       H  0.50569069  0.83631506  0.34219070     0.35200
C1763       C  0.86368389  0.19785165  0.08803805    -0.26500
C1764       C  0.84984008  0.23349706  0.10537232    -0.14600
C1765       C  0.81815849  0.23894856  0.10075872     0.36000
C1766       C  0.80191266  0.20480258  0.08468693    -0.26000
C1767       C  0.81590880  0.16650705  0.07150940    -0.15200
C1768       C  0.84727042  0.16403972  0.07211452     0.37100
N1769       N  0.86241762  0.12684025  0.05676427    -0.89500
H1770       H  0.88775120  0.19434730  0.08889380     0.18200
H1771       H  0.77789225  0.20841516  0.08237191     0.18200
N1772       N  0.80151975  0.27927023  0.10887731    -0.88500
H1773       H  0.88556816  0.12962270  0.05970136     0.35600
H1774       H  0.85833716  0.12955601  0.03309484     0.40700
H1775       H  0.81466494  0.30793316  0.11329044     0.40300
H1776       H  0.78771161  0.27222455  0.12769748     0.35200
C1777       C  0.62681444  0.19249346  0.09042992    -0.26500
C1778       C  0.64215143  0.22631059  0.10810004    -0.14600
C1779       C  0.67411427  0.22347453  0.10910085     0.36000
C1780       C  0.68904778  0.19215861  0.08994822    -0.26000
C1781       C  0.67333720  0.16052359  0.07188005    -0.15200
C1782       C  0.64195569  0.15996808  0.07241133     0.37100
N1783       N  0.62559129  0.12647943  0.05452893    -0.89500
H1784       H  0.60258732  0.19232116  0.09012189     0.18200
H1785       H  0.71327602  0.19061867  0.09074310     0.18200
N1786       N  0.69185080  0.24876677  0.13096875    -0.88500
H1787       H  0.62999591  0.13251296  0.03124612     0.35600
H1788       H  0.60255644  0.13061224  0.05758629     0.40700
H1789       H  0.70808800  0.26714350  0.11890039     0.40300
H1790       H  0.70299997  0.22558078  0.14501980     0.35200
C1791       C  0.62722308  0.82121061  0.08744295    -0.26500
C1792       C  0.64292852  0.78926507  0.10562371    -0.14600
C1793       C  0.67502799  0.79180783  0.10480544     0.36000
C1794       C  0.68938363  0.82238180  0.08499079    -0.26000
C1795       C  0.67330212  0.85342169  0.06750506    -0.15200
C1796       C  0.64190228  0.85271884  0.06847491     0.37100
N1797       N  0.62501914  0.88415064  0.05021529    -0.89500
H1798       H  0.60299720  0.82143691  0.08810412     0.18200
H1799       H  0.71362486  0.82422375  0.08512146     0.18200
N1800       N  0.69370210  0.76761200  0.12580497    -0.88500
H1801       H  0.60206470  0.87941828  0.05361610     0.35600
H1802       H  0.62925783  0.87639187  0.02698733     0.40700
H1803       H  0.70565456  0.79145648  0.13917664     0.40300
H1804       H  0.70921468  0.74857360  0.11298002     0.35200
C1805       C  0.85063554  0.85697972  0.44019264    -0.26500
C1806       C  0.81949183  0.85375711  0.43880415    -0.14600
C1807       C  0.80649477  0.81508606  0.42440934     0.36000
C1808       C  0.82461225  0.78346516  0.40849046    -0.26000
C1809       C  0.85567985  0.79080700  0.40513065    -0.15200
C1810       C  0.86878649  0.82512113  0.42465388     0.37100
N1811       N  0.90056073  0.83023220  0.42679424    -0.89500
H1812       H  0.86101975  0.88498693  0.45292651     0.18200
H1813       H  0.81379497  0.75419675  0.39784112     0.18200
N1814       N  0.77476355  0.80869055  0.42470607    -0.88500
H1815       H  0.90661439  0.82715599  0.44997678     0.35600
H1816       H  0.90635437  0.86318705  0.41981892     0.40700
H1817       H  0.77031557  0.77692163  0.43451711     0.40300
H1818       H  0.76726298  0.80753960  0.40184853     0.35200
C1819       C  0.62863616  0.19640391  0.41632068    -0.26500
C1820       C  0.64329060  0.22797826  0.39682144    -0.14600
C1821       C  0.67530661  0.22576731  0.39544258     0.36000
C1822       C  0.69078812  0.19477551  0.41393402    -0.26000
C1823       C  0.67569747  0.16406551  0.43271136    -0.15200
C1824       C  0.64437145  0.16495980  0.43419719     0.37100
N1825       N  0.62865996  0.13378367  0.45388543    -0.89500
H1826       H  0.60445979  0.19669643  0.41782019     0.18200
H1827       H  0.71487596  0.19264431  0.41201863     0.18200
N1828       N  0.69256415  0.25119019  0.37372489    -0.88500
H1829       H  0.60555983  0.13866546  0.45230461     0.35600
H1830       H  0.63464505  0.14168417  0.47668242     0.40700
H1831       H  0.70838387  0.27064055  0.38597817     0.40300
H1832       H  0.70415959  0.22817969  0.35947585     0.35200
C1833       C  0.83444105  0.82972756  0.05613642    -0.26500
C1834       C  0.81391167  0.85645693  0.07251479    -0.14600
C1835       C  0.81138378  0.85167557  0.10459632     0.36000
C1836       C  0.82939541  0.81974265  0.11967840    -0.26000
C1837       C  0.84958361  0.79075184  0.10354640    -0.15200
C1838       C  0.85303385  0.79846158  0.07116315     0.37100
N1839       N  0.87673814  0.77823312  0.05350241    -0.89500
H1840       H  0.83733860  0.83508864  0.03158925     0.18200
H1841       H  0.82757325  0.81714262  0.14451777     0.18200
N1842       N  0.79056493  0.87945971  0.12176340    -0.88500
H1843       H  0.89022896  0.80444697  0.04493376     0.35600
H1844       H  0.86734701  0.76069276  0.03464765     0.40700
H1845       H  0.79148680  0.87195413  0.14527037     0.40300
H1846       H  0.76902965  0.87068669  0.11428338     0.35200
C1847       C  0.65667106  0.77903877  0.41712088    -0.26500
C1848       C  0.63311954  0.79589737  0.39868030    -0.14600
C1849       C  0.62520014  0.84268983  0.40375618     0.36000
C1850       C  0.64406691  0.87168381  0.42073115    -0.26000
C1851       C  0.66994764  0.85593391  0.43532784    -0.15200
C1852       C  0.67512686  0.80813913  0.43496299     0.47500
N1853       N  0.69888688  0.78787708  0.45206182    -0.89500
H1854       H  0.66173821  0.74286956  0.41656402     0.18200
H1855       H  0.63777739  0.90734408  0.42274613     0.18200
N1856       N  0.59754048  0.86151425  0.39320091    -0.88500
H1857       H  0.69586819  0.79571024  0.47547221     0.35600
H1858       H  0.71909398  0.80180154  0.44460556     0.40700
H1859       H  0.60238957  0.88969646  0.37944428     0.40300
H1860       H  0.58564561  0.87364584  0.41240452     0.35200
C1861       C  0.91101824  0.24188753  0.33672215    -0.26500
C1862       C  0.88686975  0.22546226  0.35471967    -0.14600
C1863       C  0.87831210  0.17887558  0.34920389     0.36000
C1864       C  0.89672598  0.14974246  0.33188367    -0.26000
C1865       C  0.92296218  0.16503794  0.31754761    -0.15200
C1866       C  0.92940086  0.21229723  0.31901528     0.37100
N1867       N  0.95467125  0.23061275  0.30302522    -0.89500
H1868       H  0.91668671  0.27789328  0.33757452     0.18200
H1869       H  0.88976765  0.11435462  0.32935456     0.18200
N1870       N  0.85046209  0.16034801  0.35977017    -0.88500
H1871       H  0.96835032  0.24731883  0.31921466     0.35600
H1872       H  0.94690627  0.25506541  0.28762024     0.40700
H1873       H  0.85502317  0.13184076  0.37326361     0.40300
H1874       H  0.83838082  0.14866260  0.34053687     0.35200
C1875       C  0.82005567  0.23892526  0.40600245    -0.26500
C1876       C  0.85097825  0.23184740  0.40124684    -0.14600
C1877       C  0.86479582  0.19758657  0.41942265     0.36000
C1878       C  0.84727295  0.16628184  0.43582997    -0.26000
C1879       C  0.81609979  0.16956742  0.43648672    -0.15200
C1880       C  0.80251155  0.20817426  0.42324937     0.37100
N1881       N  0.77083858  0.21512198  0.42617475    -0.89500
H1882       H  0.80915821  0.26806425  0.39602830     0.18200
H1883       H  0.85818173  0.13842079  0.44756323     0.18200
N1884       N  0.89660870  0.19205058  0.41937815    -0.88500
H1885       H  0.76412191  0.24348994  0.41353228     0.35600
H1886       H  0.76640202  0.22314958  0.44931083     0.40700
H1887       H  0.90412588  0.19509653  0.44216557     0.40300
H1888       H  0.90154487  0.15902056  0.41141360     0.35200
C1889       C  0.58166828  0.31992001  0.12222565    -0.26500
C1890       C  0.60155868  0.29006985  0.10647423    -0.14600
C1891       C  0.60264160  0.29333311  0.07349001     0.36000
C1892       C  0.58337867  0.32321560  0.05816506    -0.26000
C1893       C  0.56395073  0.35205944  0.07434832    -0.15200
C1894       C  0.56257167  0.34971120  0.10681945     0.37100
N1895       N  0.54209798  0.37677127  0.12500632    -0.89500
H1896       H  0.58069026  0.31954193  0.14722365     0.18200
H1897       H  0.58506062  0.32600272  0.03327710     0.18200
N1898       N  0.62466299  0.27017623  0.05512107    -0.88500
H1899       H  0.52823611  0.35416839  0.13692846     0.35600
H1900       H  0.52785398  0.39587613  0.11120091     0.40700
H1901       H  0.63741255  0.29457646  0.04351591     0.40300
H1902       H  0.61356589  0.25014352  0.03849988     0.35200
C1903       C  0.60226160  0.72436016  0.07496058    -0.26500
C1904       C  0.60290937  0.72455654  0.10775581    -0.14600
C1905       C  0.58550184  0.69038244  0.12279091     0.36000
C1906       C  0.56839580  0.65902452  0.10559040    -0.26000
C1907       C  0.56740641  0.66053843  0.07342405    -0.15200
C1908       C  0.58418336  0.69380060  0.05786677     0.37100
N1909       N  0.58422093  0.69474649  0.02465320    -0.89500
H1910       H  0.61653892  0.74656212  0.06188358     0.18200
H1911       H  0.55567948  0.63310763  0.11760046     0.18200
N1912       N  0.58505857  0.68733582  0.15578456    -0.88500
H1913       H  0.59918070  0.71944621  0.01662631     0.35600
H1914       H  0.56299679  0.70514622  0.01756224     0.40700
H1915       H  0.59262917  0.65486431  0.16177845     0.40300
H1916       H  0.56291799  0.69049135  0.16328384     0.35200
C1917       C  0.89343829  0.65922322  0.06812946    -0.26500
C1918       C  0.92462325  0.65918361  0.07102365    -0.14600
C1919       C  0.93855120  0.69222236  0.09034593     0.36000
C1920       C  0.92089334  0.72444664  0.10601963    -0.26000
C1921       C  0.88927388  0.72542074  0.10327629    -0.15200
C1922       C  0.87578482  0.69159371  0.08382155     0.37100
N1923       N  0.84397211  0.68996438  0.07990818    -0.89500
H1924       H  0.88259520  0.63376164  0.05349620     0.18200
H1925       H  0.93259726  0.74659032  0.12205307     0.18200
N1926       N  0.97032696  0.69317755  0.09594212    -0.88500
H1927       H  0.83639620  0.65792055  0.08700813     0.35600
H1928       H  0.83920208  0.69292271  0.05640196     0.40700
H1929       H  0.98146377  0.66642675  0.08481285     0.40300
H1930       H  0.97365982  0.68820292  0.11954862     0.35200
C1931       C  0.55812993  0.70873176  0.43401693    -0.26500
C1932       C  0.56828136  0.66348324  0.43584594    -0.14600
C1933       C  0.59595200  0.65261047  0.42203824     0.36000
C1934       C  0.61085948  0.68488141  0.40413817    -0.26000
C1935       C  0.59893066  0.72876287  0.39839218    -0.15200
C1936       C  0.57365432  0.74161760  0.41655237     0.37100
N1937       N  0.56353463  0.78790695  0.41768412    -0.89500
H1938       H  0.53787304  0.71879137  0.44601272     0.18200
H1939       H  0.63232928  0.67472165  0.39490471     0.18200
N1940       N  0.60958072  0.60891624  0.42649520    -0.88500
H1941       H  0.56477987  0.79941328  0.44060816     0.35600
H1942       H  0.54102774  0.78846426  0.41113558     0.40700
H1943       H  0.61285763  0.59352754  0.40482822     0.40300
H1944       H  0.63053783  0.61419744  0.43667186     0.35200
C1945       C  0.94289639  0.70253868  0.42182701    -0.26500
C1946       C  0.92792116  0.66577729  0.43551094    -0.14600
C1947       C  0.89640014  0.66553736  0.43552932     0.36000
C1948       C  0.88083119  0.69990449  0.42034934    -0.26000
C1949       C  0.89554140  0.73348985  0.40248984    -0.15200
C1950       C  0.92728188  0.73650215  0.40563224     0.37100
N1951       N  0.94396526  0.77451353  0.39411837    -0.89500
H1952       H  0.96707612  0.70457464  0.42324224     0.18200
H1953       H  0.85661711  0.69807256  0.42034198     0.18200
N1954       N  0.87945360  0.63091210  0.45085557    -0.88500
H1955       H  0.96086462  0.76196703  0.37967031     0.35600
H1956       H  0.95448377  0.79082153  0.41282492     0.40700
H1957       H  0.88630477  0.62979324  0.47390696     0.40300
H1958       H  0.88377978  0.59937753  0.44022295     0.35200
C1959       C  0.58689282  0.33055415  0.44557814    -0.26500
C1960       C  0.56489589  0.35468220  0.42980129    -0.14600
C1961       C  0.56151950  0.34768824  0.39773382     0.36000
C1962       C  0.58035526  0.31688165  0.38237270    -0.26000
C1963       C  0.60218220  0.29069485  0.39785003    -0.15200
C1964       C  0.60614027  0.30003662  0.43011427     0.37100
N1965       N  0.63086297  0.28234744  0.44716081    -0.89500
H1966       H  0.59035027  0.33745454  0.46998705     0.18200
H1967       H  0.57764662  0.31286580  0.35764570     0.18200
N1968       N  0.53946798  0.37129837  0.37982706    -0.88500
H1969       H  0.64359709  0.30986992  0.45557848     0.35600
H1970       H  0.62242721  0.26461883  0.46609592     0.40700
H1971       H  0.52593322  0.39224326  0.39357077     0.40300
H1972       H  0.52528340  0.34662875  0.36996423     0.35200
C1973       C  0.87780619  0.31963034  0.08474305    -0.26500
C1974       C  0.89191058  0.28731324  0.10383317    -0.14600
C1975       C  0.92303838  0.27998571  0.09845398     0.36000
C1976       C  0.93953182  0.31152711  0.08072083    -0.26000
C1977       C  0.92546504  0.34859707  0.06659764    -0.15200
C1978       C  0.89399273  0.35056513  0.06706822     0.37100
N1979       N  0.87767415  0.38377750  0.04993413    -0.89500
H1980       H  0.85386521  0.32351684  0.08528699     0.18200
H1981       H  0.96350309  0.30730381  0.07835445     0.18200
N1982       N  0.93776988  0.23959266  0.10873124    -0.88500
H1983       H  0.88252169  0.41631083  0.05878515     0.35600
H1984       H  0.88441918  0.38185472  0.02683649     0.40700
H1985       H  0.95674610  0.24936937  0.12130996     0.40300
H1986       H  0.94516107  0.22143286  0.08923833     0.35200
C1987       C  0.89697439  0.35825577  0.43136637    -0.26500
C1988       C  0.92807976  0.35382058  0.43110361    -0.14600
C1989       C  0.94084565  0.31530633  0.41634325     0.36000
C1990       C  0.92219782  0.28340993  0.40067833    -0.26000
C1991       C  0.89082493  0.28963344  0.39849059    -0.15200
C1992       C  0.87839510  0.32652862  0.41611217     0.37100
N1993       N  0.84670282  0.33342733  0.41737274    -0.89500
H1994       H  0.88685675  0.38694272  0.44351501     0.18200
H1995       H  0.93260836  0.25382353  0.39019966     0.18200
N1996       N  0.97274839  0.30930317  0.41660476    -0.88500
H1997       H  0.84201135  0.36588961  0.40883570     0.35600
H1998       H  0.84007605  0.33283103  0.44051154     0.40700
H1999       H  0.98226873  0.33641795  0.40451831     0.40300
H2000       H  0.97868292  0.27937381  0.40465990     0.35200
C2001       C  0.86493866  0.68491689  0.35451897    -0.26500
C2002       C  0.85582633  0.73088814  0.35906215    -0.14600
C2003       C  0.83051534  0.74497342  0.34088103     0.36000
C2004       C  0.81361318  0.71220479  0.32414773    -0.26000
C2005       C  0.82152928  0.66593676  0.32313003    -0.15200
C2006       C  0.84851140  0.65311431  0.33723493     0.37100
N2007       N  0.86011949  0.60777559  0.33354644    -0.89500
H2008       H  0.88579890  0.67260261  0.36374181     0.18200
H2009       H  0.79377166  0.72327360  0.31202553     0.18200
N2010       N  0.82064267  0.79147999  0.33846185    -0.88500
H2011       H  0.86268842  0.59375451  0.35545762     0.35600
H2012       H  0.88125107  0.60998340  0.32330006     0.40700
H2013       H  0.83334339  0.81388200  0.35161127     0.40300
H2014       H  0.79885507  0.79341716  0.34716872     0.35200
C2015       C  0.65348526  0.33518265  0.31012284    -0.26500
C2016       C  0.67326111  0.36374645  0.32618457    -0.14600
C2017       C  0.67433430  0.36171958  0.35852835     0.36000
C2018       C  0.65773644  0.32789993  0.37373018    -0.26000
C2019       C  0.63982459  0.29531598  0.35751818    -0.15200
C2020       C  0.63572890  0.30283626  0.32532819     0.37100
N2021       N  0.61240362  0.28073586  0.30804281    -0.89500
H2022       H  0.65033495  0.34018061  0.28575585     0.18200
H2023       H  0.65953893  0.32591852  0.39857835     0.18200
N2024       N  0.69221588  0.39401030  0.37582470    -0.88500
H2025       H  0.62204934  0.26380972  0.28910952     0.35600
H2026       H  0.59814630  0.30588694  0.29958475     0.40700
H2027       H  0.71461007  0.38826211  0.37005721     0.40300
H2028       H  0.69023047  0.38831826  0.39951006     0.35200
C2029       C  0.84510779  0.37166311  0.17234652    -0.26500
C2030       C  0.81984470  0.35580356  0.18823440    -0.14600
C2031       C  0.81418841  0.30819412  0.18789262     0.36000
C2032       C  0.83211656  0.27896048  0.16928449    -0.26000
C2033       C  0.85524751  0.29585123  0.15010349    -0.15200
C2034       C  0.86313699  0.34290371  0.15438159     0.37100
N2035       N  0.89006251  0.36229743  0.14211602    -0.89500
H2036       H  0.85153140  0.40737297  0.17394990     0.18200
H2037       H  0.82696633  0.24276574  0.16847681     0.18200
N2038       N  0.79000117  0.28957915  0.20565272    -0.88500
H2039       H  0.88425494  0.39008276  0.12844608     0.35600
H2040       H  0.90290099  0.37511098  0.16048996     0.40700
H2041       H  0.79551484  0.29389121  0.22896986     0.40300
H2042       H  0.78810425  0.25433281  0.20174314     0.35200
C2043       C  0.67704272  0.65994180  0.15014686    -0.26500
C2044       C  0.67861454  0.66466710  0.18221987    -0.14600
C2045       C  0.66144574  0.69838975  0.19728483     0.36000
C2046       C  0.64363382  0.72781974  0.17965901    -0.26000
C2047       C  0.64324805  0.72550722  0.14691767    -0.15200
C2048       C  0.65966520  0.68930804  0.13248952     0.37100
N2049       N  0.65920328  0.68260090  0.09964014    -0.89500
H2050       H  0.68951040  0.63299932  0.13855191     0.18200
H2051       H  0.62966051  0.75180815  0.19202922     0.18200
N2052       N  0.66129227  0.70152393  0.23046058    -0.88500
H2053       H  0.65087330  0.64977901  0.09493927     0.35600
H2054       H  0.68114966  0.68406018  0.09137749     0.40700
H2055       H  0.65183623  0.67136524  0.23881473     0.40300
H2056       H  0.64755181  0.72825104  0.23806194     0.35200
C2057       C  0.81891625  0.72238057  0.14231634    -0.26500
C2058       C  0.85061036  0.72484351  0.14386273    -0.14600
C2059       C  0.86507483  0.69277631  0.16334564     0.36000
C2060       C  0.84825831  0.66226106  0.18117342    -0.26000
C2061       C  0.81698080  0.66244600  0.18066532    -0.15200
C2062       C  0.80223250  0.69267481  0.16080103     0.37100
N2063       N  0.77030283  0.69249919  0.15780105    -0.89500
H2064       H  0.80643323  0.74222826  0.12601095     0.18200
H2065       H  0.85985257  0.63829401  0.19576753     0.18200
N2066       N  0.89703446  0.69130947  0.16544436    -0.88500
H2067       H  0.76090582  0.70089714  0.17922094     0.35600
H2068       H  0.76333117  0.65952532  0.15145292     0.40700
H2069       H  0.90400875  0.65853840  0.15879627     0.40300
H2070       H  0.90315424  0.69665140  0.18850354     0.35200
C2071       C  0.86364171  0.33521527  0.34823283    -0.26500
C2072       C  0.85180706  0.29158123  0.35527314    -0.14600
C2073       C  0.82512604  0.27886717  0.33926184     0.36000
C2074       C  0.80833589  0.31202532  0.32345164    -0.26000
C2075       C  0.81835732  0.35744176  0.32122275    -0.15200
C2076       C  0.84724743  0.36796754  0.33229652     0.37100
N2077       N  0.86054305  0.41181702  0.32703809    -0.89500
H2078       H  0.88589586  0.34506734  0.35556860     0.18200
H2079       H  0.78716615  0.30208540  0.31315070     0.18200
N2080       N  0.81475322  0.23258998  0.33871761    -0.88500
H2081       H  0.88043064  0.40690053  0.31473991     0.35600
H2082       H  0.86590095  0.42659156  0.34846302     0.40700
H2083       H  0.81413755  0.22141536  0.31569504     0.40300
H2084       H  0.79282403  0.23191003  0.34712377     0.35200
C2085       C  0.66846548  0.74079767  0.35211601    -0.26500
C2086       C  0.63717743  0.73331781  0.35440606    -0.14600
C2087       C  0.62485844  0.69741800  0.33576887     0.36000
C2088       C  0.64355682  0.66720038  0.31956469    -0.26000
C2089       C  0.67464319  0.67253541  0.31978518    -0.15200
C2090       C  0.68717009  0.71112233  0.33485953     0.37100
N2091       N  0.71890210  0.71910904  0.33368412    -0.89500
H2092       H  0.67869264  0.77004599  0.36336460     0.18200
H2093       H  0.63358451  0.63867691  0.30699623     0.18200
N2094       N  0.59318888  0.68991720  0.33448841    -0.88500
H2095       H  0.72474915  0.74758962  0.34727014     0.35600
H2096       H  0.72433762  0.72742478  0.31096501     0.40700
H2097       H  0.58867434  0.65682244  0.34208945     0.40300
H2098       H  0.58645621  0.69189065  0.31143801     0.35200
C2099       C  0.67606983  0.36099157  0.14807761    -0.26500
C2100       C  0.67683250  0.35957186  0.18031100    -0.14600
C2101       C  0.65874766  0.32779897  0.19567843     0.36000
C2102       C  0.63999443  0.29839379  0.17857512    -0.26000
C2103       C  0.64106147  0.29603543  0.14599945    -0.15200
C2104       C  0.65882038  0.32966035  0.13085339     0.37100
N2105       N  0.66006654  0.33153215  0.09787114    -0.89500
H2106       H  0.68933901  0.38626946  0.13607892     0.18200
H2107       H  0.62461152  0.27746128  0.19134514     0.18200
N2108       N  0.65847856  0.32672691  0.22877233    -0.88500
H2109       H  0.68232757  0.32793484  0.09089202     0.35600
H2110       H  0.65280708  0.36385815  0.09119092     0.40700
H2111       H  0.67934530  0.31484582  0.23590808     0.40300
H2112       H  0.64282214  0.30285518  0.23654321     0.35200
O2113       O  0.68801225  0.44004295  0.81656573    -0.75500
O2114       O  0.71081374  0.38427897  0.78747090    -0.54400
C2115       C  0.69264895  0.39806061  0.80873311     0.78200
O2116       O  0.69133103  0.58709628  0.68971297    -0.60100
O2117       O  0.71528363  0.64183413  0.71874123    -0.53100
C2118       C  0.69709561  0.62880929  0.69725763     0.70300
O2119       O  0.68540511  0.43530970  0.69318266    -0.74600
O2120       O  0.71006077  0.38045113  0.72003244    -0.55200
C2121       C  0.69066994  0.39350450  0.70006609     0.76300
O2122       O  0.68881715  0.59375677  0.81207853    -0.59800
O2123       O  0.71762447  0.64622451  0.78702918    -0.52900
C2124       C  0.69647271  0.63517991  0.80573294     0.72900
Zr2125     Zr  0.70447884  0.51523147  0.79979641     2.54700
O2126       O  0.65005850  0.51338889  0.80182153    -0.80400
O2127       O  0.71082799  0.51992052  0.85558670    -0.93800
Zr2128     Zr  0.70185036  0.51148723  0.70873672     2.64700
O2129       O  0.64840494  0.51799628  0.71873101    -0.98700
O2130       O  0.69418455  0.50748581  0.65311166    -0.80800
O2131       O  0.70170113  0.46848752  0.75449919    -0.84100
O2132       O  0.70340289  0.55807476  0.75382378    -2.18900
O2133       O  0.80948238  0.58705842  0.81071512    -0.67500
O2134       O  0.78538049  0.64251784  0.78422243    -0.52100
C2135       C  0.80521560  0.62912263  0.80369606     0.71200
O2136       O  0.80631728  0.43167888  0.69455345    -0.60400
O2137       O  0.77937761  0.37756187  0.71967280    -0.52400
C2138       C  0.80046513  0.38982693  0.70116884     0.73000
O2139       O  0.80315865  0.58468916  0.68680908    -0.71800
O2140       O  0.78085819  0.64041802  0.71617108    -0.50500
C2141       C  0.79795044  0.62672227  0.69403015     0.74400
O2142       O  0.80769385  0.43263521  0.80847733    -0.67200
O2143       O  0.77896157  0.37817017  0.78481985    -0.54400
C2144       C  0.80069725  0.39064212  0.80256554     0.72800
Zr2145     Zr  0.79241108  0.51050621  0.79670370     2.77500
O2146       O  0.84683770  0.50794481  0.79482041    -0.97900
O2147       O  0.79185615  0.51009694  0.85292040    -0.78700
Zr2148     Zr  0.78996614  0.50911755  0.70565861     2.70100
O2149       O  0.84435926  0.51313691  0.70648920    -0.80000
O2150       O  0.78925204  0.50219773  0.64959147    -0.99100
Zr2151     Zr  0.74545348  0.42220353  0.75261333     2.21500
Zr2152     Zr  0.74903282  0.60066834  0.75249578     2.11100
O2153       O  0.79293613  0.55449590  0.75112761    -2.47800
O2154       O  0.79077586  0.46527356  0.75114200    -0.79800
O2155       O  0.74955435  0.55805529  0.79907780    -0.72000
O2156       O  0.74521944  0.46526224  0.70603213    -2.32900
O2157       O  0.74747120  0.46769400  0.79890202    -2.29100
O2158       O  0.74659904  0.55509154  0.70635232    -0.73700
H2159       H  0.68630457  0.57815962  0.75380950     0.78300
H2160       H  0.74456607  0.44538791  0.68804798     0.79400
H2161       H  0.81079013  0.57314687  0.75033287     0.81600
H2162       H  0.74766840  0.44853909  0.81688801     0.79200
H2163       H  0.67218604  0.50663988  0.65047835     0.42200
H2164       H  0.77427783  0.52489486  0.64294670     0.41200
H2165       H  0.85001844  0.49948064  0.72642455     0.40900
H2166       H  0.85297875  0.53617070  0.78413360     0.38800
H2167       H  0.78190993  0.48100124  0.85836347     0.41900
H2168       H  0.69054561  0.51442873  0.86398873     0.36700
H2169       H  0.64360685  0.53802509  0.78789762     0.42800
H2170       H  0.63975111  0.52812638  0.69895165     0.39200
H2171       H  0.85325469  0.51276775  0.81649464     0.44200
H2172       H  0.71489119  0.55260967  0.86016833     0.42900
H2173       H  0.64128498  0.48611573  0.72093197     0.43000
H2174       H  0.80869840  0.51498047  0.64287447     0.43400
O2175       O  0.93646553  0.42991964  0.93900743    -0.75500
O2176       O  0.96386611  0.37574235  0.96377763    -0.54400
C2177       C  0.94355081  0.38811790  0.94465109     0.78200
O2178       O  0.55824670  0.58342136  0.94322569    -0.60100
O2179       O  0.53209408  0.63817169  0.96920528    -0.53100
C2180       C  0.55229970  0.62548384  0.94973901     0.70300
O2181       O  0.55759162  0.42930320  0.93922927    -0.74600
O2182       O  0.53272122  0.37507437  0.96684300    -0.55200
C2183       C  0.55154642  0.38763130  0.94611346     0.76300
O2184       O  0.93482418  0.58569912  0.94446196    -0.59800
O2185       O  0.96392106  0.63880509  0.96942965    -0.52900
C2186       C  0.94249362  0.62727924  0.95111036     0.72900
Zr2187     Zr  0.95105430  0.50741331  0.95544193     2.54700
O2188       O  0.95126002  0.51166750  0.89934289    -0.80400
O2189       O  0.89659876  0.50415516  0.95711690    -0.93800
Zr2190     Zr  0.54327179  0.50583232  0.95632225     2.64700
O2191       O  0.54294093  0.50539898  0.90005428    -0.98700
O2192       O  0.59768458  0.50504708  0.95830463    -0.80800
O2193       O  0.99525817  0.46263166  0.95349868    -0.84100
O2194       O  0.99549345  0.55211623  0.95483053    -2.18900
O2195       O  0.93702870  0.58437890  0.56229831    -0.67500
O2196       O  0.96291643  0.63930219  0.53624900    -0.52100
C2197       C  0.94300489  0.62618607  0.55579421     0.71200
O2198       O  0.55195959  0.43149402  0.56509644    -0.60400
O2199       O  0.52760771  0.37755558  0.53578760    -0.52400
C2200       C  0.54570891  0.38986047  0.55752503     0.73000
O2201       O  0.55522650  0.58429889  0.56347449    -0.71800
O2202       O  0.52968027  0.63868429  0.53708849    -0.50500
C2203       C  0.54944702  0.62601001  0.55672146     0.74400
O2204       O  0.93708636  0.43047863  0.55809836    -0.67200
O2205       O  0.96476876  0.37678918  0.53237331    -0.54400
C2206       C  0.94361447  0.38880007  0.55086295     0.72800
Zr2207     Zr  0.95327371  0.50836287  0.54641592     2.77500
O2208       O  0.95228670  0.50676668  0.60261652    -0.97900
O2209       O  0.89904792  0.51004074  0.54194260    -0.78700
Zr2210     Zr  0.53890934  0.50794588  0.54827156     2.70100
O2211       O  0.53629746  0.51038469  0.60439234    -0.80000
O2212       O  0.59340183  0.50769194  0.54788238    -0.99100
Zr2213     Zr  0.99899094  0.42085646  0.50107409     2.21500
Zr2214     Zr  0.99851978  0.59848294  0.50330127     2.11100
O2215       O  0.99717241  0.55418847  0.54925621    -2.47800
O2216       O  0.99755541  0.46437767  0.54807368    -0.79800
O2217       O  0.95407677  0.55342249  0.50136530    -0.72000
O2218       O  0.54047427  0.46401765  0.50185889    -2.32900
O2219       O  0.95411595  0.46477584  0.50007069    -2.29100
O2220       O  0.54001268  0.55254085  0.50301440    -0.73700
H2221       H  0.99543557  0.57232986  0.93739050     0.78300
H2222       H  0.55787517  0.44453556  0.50182776     0.79400
H2223       H  0.99656457  0.57360332  0.56747082     0.81600
H2224       H  0.93662692  0.44531346  0.49929396     0.79200
H2225       H  0.60298750  0.52988542  0.97309700     0.42200
H2226       H  0.59889833  0.47911153  0.53679550     0.41200
H2227       H  0.55734245  0.50754314  0.61119114     0.40900
H2228       H  0.93075172  0.50705024  0.60796684     0.38800
H2229       H  0.89525897  0.52569443  0.52221250     0.41900
H2230       H  0.89087295  0.52915139  0.97155535     0.36700
H2231       H  0.96734160  0.53376140  0.89444315     0.42800
H2232       H  0.52363197  0.49091094  0.89436443     0.39200
H2233       H  0.95908825  0.47569503  0.60797211     0.44200
H2234       H  0.89179468  0.47586306  0.96840729     0.42900
H2235       H  0.54062091  0.53777610  0.89418110     0.43000
H2236       H  0.59903665  0.53233081  0.53353024     0.43400
C2237       C  0.86866695  0.25647021  0.87534325    -0.02700
O2238       O  0.80619132  0.08866533  0.94473519    -0.75500
O2239       O  0.77809094  0.14183947  0.97058176    -0.54400
C2240       C  0.79882049  0.13038232  0.95145626     0.78200
O2241       O  0.68352262  0.93214348  0.94517426    -0.60100
O2242       O  0.70968773  0.87754883  0.97010715    -0.53100
C2243       C  0.68852985  0.89019479  0.95205698     0.70300
O2244       O  0.68639345  0.08431585  0.94092718    -0.74600
O2245       O  0.71324083  0.13884554  0.96725188    -0.55200
C2246       C  0.69323715  0.12600467  0.94757423     0.76300
O2247       O  0.80890406  0.93135936  0.94614908    -0.59800
O2248       O  0.77803589  0.87802651  0.96757735    -0.52900
C2249       C  0.80038371  0.88971041  0.95080329     0.72900
Zr2250     Zr  0.79176330  0.00967124  0.95799030     2.54700
O2251       O  0.79271321  0.00742174  0.90176744    -0.80400
O2252       O  0.84617038  0.01272677  0.96054687    -0.93800
Zr2253     Zr  0.70359967  0.00840668  0.95416460     2.64700
O2254       O  0.71571350  0.00438331  0.89941192    -0.98700
O2255       O  0.65044098  0.00913919  0.94202325    -0.80800
O2256       O  0.74744951  0.05402106  0.95578903    -0.84100
O2257       O  0.74767177  0.96391574  0.95480999    -2.18900
O2258       O  0.80610782  0.93521700  0.56005423    -0.67500
O2259       O  0.77717375  0.88129477  0.53558216    -0.52100
C2260       C  0.79830663  0.89364433  0.55405289     0.71200
O2261       O  0.68350748  0.08641424  0.56073805    -0.60400
O2262       O  0.71155271  0.14054685  0.53642526    -0.52400
C2263       C  0.69062740  0.12795856  0.55487546     0.73000
O2264       O  0.68079390  0.93384320  0.55625442    -0.71800
O2265       O  0.71086952  0.88068204  0.53314955    -0.50500
C2266       C  0.68867579  0.89240513  0.55034934     0.74400
O2267       O  0.80571549  0.08948171  0.56146443    -0.67200
O2268       O  0.77758428  0.14255487  0.53660962    -0.54400
C2269       C  0.79862762  0.13099950  0.55512719     0.72800
Zr2270     Zr  0.78889432  0.01194418  0.54809635     2.77500
O2271       O  0.78546728  0.01265007  0.60419039    -0.97900
O2272       O  0.84331127  0.01195947  0.55014229    -0.78700
Zr2273     Zr  0.70014904  0.01033913  0.54644981     2.70100
O2274       O  0.70421351  0.00806750  0.60248124    -0.80000
O2275       O  0.64580421  0.01526911  0.54856021    -0.99100
Zr2276     Zr  0.74510588  0.09882915  0.50231375     2.21500
Zr2277     Zr  0.74501284  0.92316256  0.50099783     2.11100
O2278       O  0.74458084  0.96655668  0.54804180    -2.47800
O2279       O  0.74431869  0.05580922  0.54861048    -0.79800
O2280       O  0.79003132  0.96722174  0.50209256    -0.72000
O2281       O  0.70035688  0.05445441  0.50103873    -2.32900
O2282       O  0.79035417  0.05580489  0.50261749    -2.29100
O2283       O  0.70011090  0.96624113  0.50026904    -0.73700
H2284       H  0.74818939  0.94388673  0.93688443     0.78300
H2285       H  0.68286738  0.07373030  0.50083204     0.79400
H2286       H  0.74421117  0.94682373  0.56572530     0.81600
H2287       H  0.80768894  0.07556145  0.50300456     0.79200
H2288       H  0.64087081  0.02228112  0.96074432     0.42200
H2289       H  0.63852437  0.99038792  0.53473678     0.41200
H2290       H  0.69590468  0.97796000  0.60826867     0.40900
H2291       H  0.76911668  0.03435629  0.60897109     0.38800
H2292       H  0.84965274  0.02169242  0.52933722     0.41900
H2293       H  0.85095399  0.04249668  0.97056574     0.36700
H2294       H  0.78427242  0.97714794  0.89599938     0.42800
H2295       H  0.69663993  0.99566656  0.88927848     0.39200
H2296       H  0.77715390  0.98230022  0.60940707     0.44200
H2297       H  0.85263325  0.01624802  0.93883764     0.42900
H2298       H  0.71907107  0.03655983  0.89347009     0.43000
H2299       H  0.64045570  0.00529334  0.56960871     0.43400
C2300       C  0.61814360  0.76140841  0.87498284    -0.02700
O2301       O  0.93487332  0.08615349  0.69079791    -0.75500
O2302       O  0.96208351  0.14110565  0.71574402    -0.54400
C2303       C  0.94084748  0.12818999  0.69740204     0.78200
O2304       O  0.93892717  0.93531117  0.80991519    -0.60100
O2305       O  0.96117999  0.87846166  0.78222020    -0.53100
C2306       C  0.94311925  0.89289114  0.80339301     0.70300
O2307       O  0.93530797  0.08852770  0.80465828    -0.74600
O2308       O  0.96230947  0.14335928  0.78044238    -0.55200
C2309       C  0.94111611  0.13053074  0.79855242     0.76300
O2310       O  0.93332934  0.93497625  0.68838847    -0.59800
O2311       O  0.96042948  0.87996933  0.71265104    -0.52900
C2312       C  0.93972180  0.89321486  0.69409312     0.72900
Zr2313     Zr  0.95271473  0.00992469  0.70228119     2.54700
O2314       O  0.89852137  0.01010299  0.69715664    -0.80400
O2315       O  0.96004806  0.01174221  0.64665583    -0.93800
Zr2316     Zr  0.95228862  0.01141704  0.79368780     2.64700
O2317       O  0.89791387  0.00699939  0.79591131    -0.98700
O2318       O  0.95604131  0.01829382  0.84965696    -0.80800
O2319       O  0.95169912  0.05478763  0.74807616    -0.84100
O2320       O  0.95077656  0.96632377  0.74795418    -2.18900
O2321       O  0.55916806  0.92986237  0.69283541    -0.67500
O2322       O  0.52978500  0.87608505  0.71576123    -0.52100
C2323       C  0.55183016  0.88821049  0.69849592     0.71200
O2324       O  0.55713081  0.08344970  0.80916900    -0.60400
O2325       O  0.53063800  0.13826742  0.78386529    -0.52400
C2326       C  0.55077782  0.12527806  0.80308136     0.73000
O2327       O  0.55436280  0.92790621  0.80798117    -0.71800
O2328       O  0.52607697  0.87459106  0.78214480    -0.50500
C2329       C  0.54672567  0.88622460  0.80129302     0.74400
O2330       O  0.55894088  0.08359382  0.69177527    -0.67200
O2331       O  0.52975317  0.13825395  0.71476945    -0.54400
C2332       C  0.55109495  0.12534436  0.69681822     0.72800
Zr2333     Zr  0.54144537  0.00691554  0.70441980     2.77500
O2334       O  0.59575237  0.01014872  0.70004247    -0.97900
O2335       O  0.53671613  0.00329464  0.64844566    -0.78700
Zr2336     Zr  0.53914339  0.00667607  0.79607403     2.70100
O2337       O  0.59280960  0.00647309  0.80543424    -0.80000
O2338       O  0.52921280  0.00586754  0.85136155    -0.99100
Zr2339     Zr  0.49695434  0.09704145  0.74909075     2.21500
Zr2340     Zr  0.99463321  0.92014869  0.74787681     2.11100
O2341       O  0.54052603  0.96264179  0.74989146    -2.47800
O2342       O  0.54126672  0.05134176  0.75058626    -0.79800
O2343       O  0.99625358  0.96361016  0.70161778    -0.72000
O2344       O  0.49604040  0.05376465  0.79548231    -2.32900
O2345       O  0.49780968  0.05264904  0.70243253    -2.29100
O2346       O  0.99522396  0.96460420  0.79454020    -0.73700
H2347       H  0.93289837  0.94767359  0.74810978     0.78300
H2348       H  0.49572470  0.07372229  0.81342432     0.79400
H2349       H  0.55791334  0.94320979  0.75036781     0.81600
H2350       H  0.49814338  0.07208616  0.68458115     0.79200
H2351       H  0.93652974  0.03092126  0.85633460     0.42200
H2352       H  0.54914626  0.00195184  0.86089304     0.41200
H2353       H  0.60179876  0.01091709  0.78479483     0.40900
H2354       H  0.60312075  0.98602590  0.71389881     0.38800
H2355       H  0.52563153  0.03124461  0.64293270     0.41900
H2356       H  0.93957410  0.01365691  0.63808415     0.36700
H2357       H  0.89105584  0.00464361  0.71831609     0.42800
H2358       H  0.89282189  0.01499542  0.81756306     0.39200
H2359       H  0.60012661  0.99851896  0.67894915     0.44200
H2360       H  0.96685001  0.98054457  0.64103385     0.42900
H2361       H  0.89085574  0.03331533  0.78380790     0.43000
H2362       H  0.52352045  0.03765483  0.85677807     0.43400
C2363       C  0.86807888  0.75962777  0.62305087    -0.02700
C2364       C  0.62043278  0.26077305  0.62664489    -0.02700
C2365       C  0.87256058  0.26284632  0.62495671    -0.02700
C2366       C  0.62514761  0.75762267  0.62604867    -0.02700
C2367       C  0.62487870  0.25698541  0.87458590    -0.02700
C2368       C  0.87501229  0.76189143  0.88006790    -0.02700
C2369       C  0.59884188  0.16342222  0.81420443    -0.26500
C2370       C  0.56815132  0.16064751  0.81983329    -0.14600
C2371       C  0.55567965  0.18758984  0.84375837     0.36000
C2372       C  0.57422153  0.21712627  0.86093569    -0.26000
C2373       C  0.60521612  0.22278684  0.85457029    -0.15200
C2374       C  0.61750412  0.19264830  0.83141856     0.37100
N2375       N  0.64883456  0.18893463  0.82513467    -0.89500
H2376       H  0.60872642  0.14122898  0.79674750     0.18200
H2377       H  0.56379826  0.23417204  0.88036708     0.18200
N2378       N  0.52468403  0.18441100  0.85253089    -0.88500
H2379       H  0.65935512  0.17391828  0.84385515     0.35600
H2380       H  0.65814124  0.22070683  0.82033522     0.40700
H2381       H  0.51286903  0.16092291  0.83886648     0.40300
H2382       H  0.51498090  0.21634973  0.84891614     0.35200
C2383       C  0.59879189  0.16238706  0.68257136    -0.26500
C2384       C  0.56770710  0.16086393  0.68021260    -0.14600
C2385       C  0.55299758  0.19125679  0.66060782     0.36000
C2386       C  0.56984122  0.22307432  0.64377963    -0.26000
C2387       C  0.60141399  0.22688493  0.64681610    -0.15200
C2388       C  0.61566061  0.19458742  0.66634365     0.37100
N2389       N  0.64752113  0.19377648  0.66955775    -0.89500
H2390       H  0.61018524  0.13824728  0.69720934     0.18200
H2391       H  0.55775136  0.24316362  0.62733967     0.18200
N2392       N  0.52103202  0.18854625  0.65698913    -0.88500
H2393       H  0.65508659  0.16153320  0.66241996     0.35600
H2394       H  0.65278649  0.19808033  0.69293650     0.40700
H2395       H  0.51596271  0.15685740  0.64676745     0.40300
H2396       H  0.51343223  0.21347856  0.64184402     0.35200
C2397       C  0.93002483  0.81208120  0.81841345    -0.26500
C2398       C  0.92546433  0.85941421  0.82181699    -0.14600
C2399       C  0.90324075  0.87449121  0.84275594     0.36000
C2400       C  0.88763562  0.84314854  0.86045122    -0.26000
C2401       C  0.89310419  0.79557187  0.85911162    -0.15200
C2402       C  0.91385022  0.78028738  0.83622077     0.37100
N2403       N  0.91887456  0.73250913  0.83097517    -0.89500
H2404       H  0.94626951  0.79942591  0.80185088     0.18200
H2405       H  0.87004094  0.85767919  0.87437728     0.18200
N2406       N  0.89557018  0.92190150  0.84605409    -0.88500
H2407       H  0.94166885  0.72590880  0.83367944     0.35600
H2408       H  0.91325795  0.72483182  0.80805272     0.40700
H2409       H  0.89876861  0.93179216  0.86911680     0.40300
H2410       H  0.87289550  0.92564308  0.84076547     0.35200
C2411       C  0.60123779  0.85972405  0.68055420    -0.26500
C2412       C  0.57046184  0.85237123  0.68370372    -0.14600
C2413       C  0.55791446  0.81275539  0.67067189     0.36000
C2414       C  0.57528160  0.78431376  0.65172180    -0.26000
C2415       C  0.60650537  0.79077531  0.64769827    -0.15200
C2416       C  0.61942666  0.82960182  0.66362075     0.37100
N2417       N  0.65062021  0.84114699  0.66259221    -0.89500
H2418       H  0.61137386  0.88978781  0.69117026     0.18200
H2419       H  0.56304346  0.75775447  0.63990055     0.18200
N2420       N  0.52712019  0.80169205  0.67556090    -0.88500
H2421       H  0.65605279  0.85486935  0.64123690     0.35600
H2422       H  0.66384490  0.81288073  0.66734451     0.40700
H2423       H  0.51755488  0.79640792  0.65386080     0.40300
H2424       H  0.52623327  0.77044334  0.68696295     0.35200
C2425       C  0.89113001  0.85617787  0.68132109    -0.26500
C2426       C  0.92211790  0.85835169  0.67723083    -0.14600
C2427       C  0.93546591  0.83136119  0.65415211     0.36000
C2428       C  0.91834812  0.79881142  0.63792671    -0.26000
C2429       C  0.88723009  0.79402183  0.64273644    -0.15200
C2430       C  0.87354183  0.82540795  0.66389722     0.37100
N2431       N  0.84176724  0.82570018  0.66817659    -0.89500
H2432       H  0.88042534  0.87898488  0.69784688     0.18200
H2433       H  0.92947578  0.77964271  0.61988120     0.18200
N2434       N  0.96603611  0.83924579  0.64575334    -0.88500
H2435       H  0.83394110  0.85827251  0.66279645     0.35600
H2436       H  0.83718588  0.82002490  0.69147884     0.40700
H2437       H  0.96771423  0.87267004  0.63765109     0.40300
H2438       H  0.97195841  0.81795461  0.62717360     0.35200
C2439       C  0.93183274  0.20900699  0.68054606    -0.26500
C2440       C  0.92194400  0.16352606  0.68223651    -0.14600
C2441       C  0.89389221  0.15222257  0.66902544     0.36000
C2442       C  0.87852704  0.18471710  0.65164879    -0.26000
C2443       C  0.89014757  0.22897837  0.64619691    -0.15200
C2444       C  0.91583671  0.24188078  0.66377313     0.37100
N2445       N  0.92621553  0.28814786  0.66455349    -0.89500
H2446       H  0.95239212  0.21924498  0.69197938     0.18200
H2447       H  0.85679460  0.17496968  0.64281359     0.18200
N2448       N  0.88061936  0.10794416  0.67364771    -0.88500
H2449       H  0.94857426  0.28889709  0.65753035     0.35600
H2450       H  0.92552306  0.29968075  0.68749590     0.40700
H2451       H  0.86029277  0.10471731  0.66187418     0.40300
H2452       H  0.87567285  0.10534453  0.69715575     0.35200
C2453       C  0.59497049  0.85161341  0.81527825    -0.26500
C2454       C  0.56378482  0.84929869  0.81612323    -0.14600
C2455       C  0.54993731  0.81264270  0.83164426     0.36000
C2456       C  0.56745636  0.78220262  0.84863359    -0.26000
C2457       C  0.59874266  0.78814359  0.85142978    -0.15200
C2458       C  0.61251620  0.82120845  0.83207030     0.37100
N2459       N  0.64437083  0.82674186  0.83146364    -0.89500
H2460       H  0.60589298  0.87836145  0.80229846     0.18200
H2461       H  0.55613945  0.75456720  0.86012881     0.18200
N2462       N  0.51811783  0.80657032  0.83169545    -0.88500
H2463       H  0.64958454  0.86011531  0.83863231     0.35600
H2464       H  0.65156217  0.82255944  0.80863342     0.40700
H2465       H  0.51097053  0.80106010  0.80898268     0.40300
H2466       H  0.50823189  0.83649467  0.84026639     0.35200
C2467       C  0.86445428  0.19979106  0.58511628    -0.26500
C2468       C  0.85075812  0.23503603  0.60292674    -0.14600
C2469       C  0.81895075  0.24016105  0.59896794     0.36000
C2470       C  0.80257660  0.20556309  0.58358637    -0.26000
C2471       C  0.81662404  0.16789840  0.56972405    -0.15200
C2472       C  0.84796415  0.16640789  0.56896989     0.37100
N2473       N  0.86299073  0.13075169  0.55188109    -0.89500
H2474       H  0.88847906  0.19636494  0.58544256     0.18200
H2475       H  0.77846051  0.20860442  0.58200708     0.18200
N2476       N  0.80226992  0.28055095  0.60689201    -0.88500
H2477       H  0.88620387  0.13435142  0.55373524     0.35600
H2478       H  0.85777018  0.13473623  0.52854349     0.40700
H2479       H  0.81535701  0.30879694  0.61243704     0.40300
H2480       H  0.78776038  0.27315605  0.62509945     0.35200
C2481       C  0.62631389  0.19483368  0.58858119    -0.26500
C2482       C  0.64095965  0.22834663  0.60711465    -0.14600
C2483       C  0.67298265  0.22581103  0.60884949     0.36000
C2484       C  0.68856712  0.19495569  0.58981958    -0.26000
C2485       C  0.67347189  0.16344564  0.57109747    -0.15200
C2486       C  0.64214004  0.16294675  0.57072629     0.37100
N2487       N  0.62627803  0.13032090  0.55189708    -0.89500
H2488       H  0.60209715  0.19401296  0.58755051     0.18200
H2489       H  0.71276413  0.19351928  0.59133054     0.18200
N2490       N  0.69009833  0.25058320  0.63151306    -0.88500
H2491       H  0.61275269  0.14825802  0.53658979     0.35600
H2492       H  0.61234132  0.11123133  0.56625080     0.40700
H2493       H  0.70655470  0.26946598  0.62013190     0.40300
H2494       H  0.70099030  0.22708298  0.64554139     0.35200
C2495       C  0.62695177  0.82332263  0.58787693    -0.26500
C2496       C  0.64333404  0.78944516  0.60383791    -0.14600
C2497       C  0.67527207  0.79083260  0.60057319     0.36000
C2498       C  0.68866197  0.82219137  0.58072562    -0.26000
C2499       C  0.67214636  0.85572753  0.56604142    -0.15200
C2500       C  0.64090290  0.85628526  0.56938416     0.37100
N2501       N  0.62346777  0.89038559  0.55408745    -0.89500
H2502       H  0.60283972  0.82434985  0.59031339     0.18200
H2503       H  0.71278991  0.82257459  0.57874366     0.18200
N2504       N  0.69504221  0.76443484  0.61910885    -0.88500
H2505       H  0.60073096  0.88627569  0.55904062     0.35600
H2506       H  0.62588931  0.88501403  0.53030445     0.40700
H2507       H  0.70805840  0.78684766  0.63253607     0.40300
H2508       H  0.70947351  0.74625347  0.60447457     0.35200
C2509       C  0.84898018  0.85266327  0.94042329    -0.26500
C2510       C  0.81805235  0.85256447  0.93628994    -0.14600
C2511       C  0.80470750  0.81686822  0.91884768     0.36000
C2512       C  0.82297742  0.78469724  0.90342005    -0.26000
C2513       C  0.85446125  0.78907601  0.90331285    -0.15200
C2514       C  0.86712517  0.82070710  0.92510823     0.37100
N2515       N  0.89875167  0.82303575  0.92999867    -0.89500
H2516       H  0.85929191  0.87838613  0.95526043     0.18200
H2517       H  0.81220899  0.75719993  0.89080569     0.18200
N2518       N  0.77275649  0.81453095  0.91569673    -0.88500
H2519       H  0.90285394  0.81775396  0.95343551     0.35600
H2520       H  0.90617594  0.85593173  0.92464189     0.40700
H2521       H  0.76421512  0.80546262  0.93718843     0.40300
H2522       H  0.76659705  0.78824374  0.90034629     0.35200
C2523       C  0.63008620  0.19430371  0.91392319    -0.26500
C2524       C  0.64513192  0.22454477  0.89381777    -0.14600
C2525       C  0.67700715  0.22021667  0.89165315     0.36000
C2526       C  0.69212481  0.18950830  0.91068018    -0.26000
C2527       C  0.67672979  0.16130268  0.93095140    -0.15200
C2528       C  0.64545096  0.16356245  0.93266120     0.37100
N2529       N  0.62941922  0.13465832  0.95359277    -0.89500
H2530       H  0.60594566  0.19572978  0.91566777     0.18200
H2531       H  0.71607901  0.18571274  0.90821918     0.18200
N2532       N  0.69430651  0.24307249  0.86865711    -0.88500
H2533       H  0.60640459  0.14045105  0.95213132     0.35600
H2534       H  0.63584015  0.14413765  0.97598525     0.40700
H2535       H  0.71092217  0.26231688  0.87987589     0.40300
H2536       H  0.70504551  0.21846175  0.85491490     0.35200
C2537       C  0.84576793  0.85472131  0.56581299    -0.26500
C2538       C  0.81489685  0.85766435  0.56997117    -0.14600
C2539       C  0.80055797  0.82848456  0.59079629     0.36000
C2540       C  0.81744407  0.79621139  0.60693648    -0.26000
C2541       C  0.84878310  0.79204845  0.60281446    -0.15200
C2542       C  0.86276807  0.82274010  0.58187472     0.37100
N2543       N  0.89441335  0.82161760  0.57672221    -0.89500
H2544       H  0.85688241  0.87774031  0.55006101     0.18200
H2545       H  0.80587095  0.77655698  0.62412522     0.18200
N2546       N  0.76903131  0.83311279  0.59648450    -0.88500
H2547       H  0.90320027  0.85378041  0.58254538     0.35600
H2548       H  0.89825235  0.81589098  0.55318072     0.40700
H2549       H  0.76549979  0.86532302  0.60658601     0.40300
H2550       H  0.76173192  0.80907165  0.61248355     0.35200
C2551       C  0.65560506  0.77853880  0.91865233    -0.26500
C2552       C  0.63385105  0.79558235  0.89813047    -0.14600
C2553       C  0.62588001  0.84264147  0.90242804     0.36000
C2554       C  0.64376011  0.87150874  0.92058260    -0.26000
C2555       C  0.66840503  0.85539932  0.93710469    -0.15200
C2556       C  0.67269418  0.80746636  0.93796992     0.47500
N2557       N  0.69390306  0.78680235  0.95812058    -0.89500
H2558       H  0.66018392  0.74221870  0.91888922     0.18200
H2559       H  0.63780320  0.90737534  0.92176517     0.18200
N2560       N  0.59905145  0.86186342  0.89005422    -0.88500
H2561       H  0.68896677  0.79674855  0.98082924     0.35600
H2562       H  0.71528044  0.79818446  0.95235184     0.40700
H2563       H  0.60492275  0.89004854  0.87670871     0.40300
H2564       H  0.58597690  0.87402649  0.90840599     0.35200
C2565       C  0.90931337  0.24094608  0.83417993    -0.26500
C2566       C  0.88562248  0.22356190  0.85244479    -0.14600
C2567       C  0.87717759  0.17707395  0.84650880     0.36000
C2568       C  0.89528970  0.14889286  0.82825686    -0.26000
C2569       C  0.92142447  0.16492929  0.81411578    -0.15200
C2570       C  0.92764917  0.21214016  0.81594852     0.37100
N2571       N  0.95277172  0.23105381  0.80001212    -0.89500
H2572       H  0.91478586  0.27699713  0.83533927     0.18200
H2573       H  0.88850515  0.11348067  0.82532829     0.18200
N2574       N  0.84989291  0.15761282  0.85784453    -0.88500
H2575       H  0.96664310  0.24712275  0.81631162     0.35600
H2576       H  0.94487102  0.25604764  0.78508042     0.40700
H2577       H  0.85521475  0.12898260  0.87092220     0.40300
H2578       H  0.83727387  0.14604376  0.83895298     0.35200
C2579       C  0.81903046  0.23526736  0.90411230    -0.26500
C2580       C  0.84997571  0.22863575  0.89924146    -0.14600
C2581       C  0.86421165  0.19497722  0.91759116     0.36000
C2582       C  0.84710442  0.16422786  0.93488345    -0.26000
C2583       C  0.81594953  0.16750345  0.93625210    -0.15200
C2584       C  0.80195658  0.20526073  0.92240135     0.37100
N2585       N  0.77032712  0.21210736  0.92586675    -0.89500
H2586       H  0.80781840  0.26378715  0.89371197     0.18200
H2587       H  0.85831584  0.13685012  0.94683120     0.18200
N2588       N  0.89604830  0.18970431  0.91704974    -0.88500
H2589       H  0.76326110  0.23986475  0.91281934     0.35600
H2590       H  0.76632839  0.22107746  0.94893788     0.40700
H2591       H  0.90395247  0.19354373  0.93965132     0.40300
H2592       H  0.90097227  0.15648834  0.90945521     0.35200
C2593       C  0.57994740  0.32158961  0.62235890    -0.26500
C2594       C  0.59966890  0.29172236  0.60632439    -0.14600
C2595       C  0.60059112  0.29569330  0.57338790     0.36000
C2596       C  0.58090244  0.32530795  0.55830986    -0.26000
C2597       C  0.56148831  0.35395948  0.57469579    -0.15200
C2598       C  0.56078040  0.35176546  0.60723949     0.37100
N2599       N  0.54095089  0.37939682  0.62580622    -0.89500
H2600       H  0.57918382  0.32097297  0.64736105     0.18200
H2601       H  0.58237066  0.32826268  0.53342206     0.18200
N2602       N  0.62291554  0.27364438  0.55481860    -0.88500
H2603       H  0.52715939  0.35719982  0.63814425     0.35600
H2604       H  0.52658188  0.39870493  0.61227209     0.40700
H2605       H  0.63539025  0.29873044  0.54356728     0.40300
H2606       H  0.61210149  0.25373438  0.53793391     0.35200
C2607       C  0.60028827  0.72706096  0.57467773    -0.26500
C2608       C  0.60371803  0.72442979  0.60723979    -0.14600
C2609       C  0.58850288  0.68766802  0.62212449     0.36000
C2610       C  0.57087655  0.65684118  0.60510031    -0.26000
C2611       C  0.56688466  0.66141785  0.57335200    -0.15200
C2612       C  0.58140884  0.69717393  0.55793419     0.37100
N2613       N  0.57829360  0.70157461  0.52503778    -0.89500
H2614       H  0.61268453  0.75137585  0.56135126     0.18200
H2615       H  0.55989268  0.62907218  0.61702427     0.18200
N2616       N  0.59061510  0.68152099  0.65483700    -0.88500
H2617       H  0.59193347  0.72786553  0.51683571     0.35600
H2618       H  0.55630852  0.71157364  0.52061002     0.40700
H2619       H  0.59957738  0.64914777  0.65876159     0.40300
H2620       H  0.56903776  0.68223895  0.66415698     0.35200
C2621       C  0.90358461  0.68550079  0.55589457    -0.26500
C2622       C  0.92522638  0.66129480  0.57212843    -0.14600
C2623       C  0.92718351  0.66719153  0.60434496     0.36000
C2624       C  0.90868435  0.69879652  0.61938512    -0.26000
C2625       C  0.88765062  0.72568147  0.60334101    -0.15200
C2626       C  0.88394653  0.71580890  0.57112523     0.37100
N2627       N  0.85916428  0.73300907  0.55394112    -0.89500
H2628       H  0.90072280  0.67883870  0.53138135     0.18200
H2629       H  0.91103102  0.70284182  0.64413401     0.18200
N2630       N  0.94795149  0.64167851  0.62240367    -0.88500
H2631       H  0.84649040  0.70517817  0.54591496     0.35600
H2632       H  0.86749133  0.75008662  0.53469130     0.40700
H2633       H  0.96947980  0.64736706  0.61379032     0.40300
H2634       H  0.94290904  0.60690507  0.61997138     0.35200
C2635       C  0.56077598  0.70691300  0.93289136    -0.26500
C2636       C  0.57001856  0.66101065  0.93316906    -0.14600
C2637       C  0.59660463  0.64945835  0.91743178     0.36000
C2638       C  0.61163191  0.68214373  0.90009600    -0.26000
C2639       C  0.60070606  0.72711057  0.89623096    -0.15200
C2640       C  0.57621570  0.74001416  0.91546512     0.37100
N2641       N  0.56697153  0.78667673  0.91780851    -0.89500
H2642       H  0.54133754  0.71735119  0.94612799     0.18200
H2643       H  0.63257869  0.67125173  0.89005578     0.18200
N2644       N  0.60912600  0.60452467  0.91927571    -0.88500
H2645       H  0.56905007  0.79717594  0.94088009     0.35600
H2646       H  0.54434005  0.78844554  0.91188153     0.40700
H2647       H  0.61080541  0.59094839  0.89688151     0.40300
H2648       H  0.63070094  0.60740119  0.92842650     0.35200
C2649       C  0.94140740  0.70035081  0.92225075    -0.26500
C2650       C  0.92571415  0.66453145  0.93619913    -0.14600
C2651       C  0.89421978  0.66543867  0.93603378     0.36000
C2652       C  0.87933827  0.69964574  0.92006268    -0.26000
C2653       C  0.89477352  0.73226273  0.90203503    -0.15200
C2654       C  0.92649424  0.73442002  0.90556376     0.37100
N2655       N  0.94383129  0.77169993  0.89398541    -0.89500
H2656       H  0.96560234  0.70152222  0.92382248     0.18200
H2657       H  0.85510608  0.69852912  0.91966981     0.18200
N2658       N  0.87662455  0.63215335  0.95192110    -0.88500
H2659       H  0.96079535  0.75837522  0.87993791     0.35600
H2660       H  0.95421092  0.78815857  0.91271574     0.40700
H2661       H  0.88342484  0.63159302  0.97500584     0.40300
H2662       H  0.88032857  0.60006957  0.94180600     0.35200
C2663       C  0.58986988  0.32723050  0.94408249    -0.26500
C2664       C  0.56784307  0.35195781  0.92876971    -0.14600
C2665       C  0.56448240  0.34615363  0.89659004     0.36000
C2666       C  0.58311490  0.31555403  0.88074371    -0.26000
C2667       C  0.60494866  0.28875142  0.89573339    -0.15200
C2668       C  0.60914645  0.29734055  0.92805178     0.37100
N2669       N  0.63416870  0.27960051  0.94460121    -0.89500
H2670       H  0.59346157  0.33340355  0.96855035     0.18200
H2671       H  0.58013227  0.31213833  0.85604065     0.18200
N2672       N  0.54259869  0.37074006  0.87905640    -0.88500
H2673       H  0.64682737  0.30712157  0.95314146     0.35600
H2674       H  0.62605252  0.26137596  0.96346689     0.40700
H2675       H  0.52917184  0.39139199  0.89310563     0.40300
H2676       H  0.52822709  0.34662747  0.86885639     0.35200
C2677       C  0.87792264  0.32428522  0.58437902    -0.26500
C2678       C  0.89222469  0.28967269  0.60135798    -0.14600
C2679       C  0.92273733  0.28094708  0.59376454     0.36000
C2680       C  0.93906666  0.31315604  0.57658253    -0.26000
C2681       C  0.92531838  0.35241177  0.56505912    -0.15200
C2682       C  0.89395413  0.35604896  0.56723421     0.37100
N2683       N  0.87759564  0.39152314  0.55230449    -0.89500
H2684       H  0.85416095  0.32929448  0.58634052     0.18200
H2685       H  0.96273630  0.30769192  0.57265234     0.18200
N2686       N  0.93685621  0.23864859  0.60121778    -0.88500
H2687       H  0.88328989  0.42303921  0.56229306     0.35600
H2688       H  0.88334010  0.39149336  0.52890097     0.40700
H2689       H  0.95683254  0.24584810  0.61285525     0.40300
H2690       H  0.94256069  0.22208722  0.58050645     0.35200
C2691       C  0.89478321  0.35489645  0.92993440    -0.26500
C2692       C  0.92589312  0.35186934  0.92888229    -0.14600
C2693       C  0.93921071  0.31418532  0.91370260     0.36000
C2694       C  0.92094543  0.28170839  0.89819061    -0.26000
C2695       C  0.88944232  0.28663182  0.89677176    -0.15200
C2696       C  0.87659953  0.32251267  0.91498569     0.37100
N2697       N  0.84482047  0.32769302  0.91716730    -0.89500
H2698       H  0.88435400  0.38282947  0.94259968     0.18200
H2699       H  0.93170494  0.25275571  0.88727685     0.18200
N2700       N  0.97121753  0.30953786  0.91355080    -0.88500
H2701       H  0.83914001  0.35995773  0.90894122     0.35600
H2702       H  0.83882754  0.32641415  0.94047250     0.40700
H2703       H  0.98009154  0.33725590  0.90157268     0.40300
H2704       H  0.97755844  0.28007504  0.90131105     0.35200
C2705       C  0.86609177  0.68298982  0.85361392    -0.26500
C2706       C  0.85711475  0.72930507  0.85696718    -0.14600
C2707       C  0.83346484  0.74340340  0.83663718     0.36000
C2708       C  0.81739421  0.71047263  0.81915194    -0.26000
C2709       C  0.82457286  0.66387080  0.81966413    -0.15200
C2710       C  0.85043201  0.65090175  0.83579856     0.37100
N2711       N  0.86160633  0.60507678  0.83386762    -0.89500
H2712       H  0.88627793  0.67053076  0.86421059     0.18200
H2713       H  0.79862515  0.72167386  0.80540231     0.18200
N2714       N  0.82448770  0.79012553  0.83282047    -0.88500
H2715       H  0.86249722  0.59198233  0.85618861     0.35600
H2716       H  0.88339962  0.60618344  0.82511926     0.40700
H2717       H  0.83637721  0.81254137  0.84682476     0.40300
H2718       H  0.80209496  0.79293622  0.83955449     0.35200
C2719       C  0.65381668  0.33775151  0.80940291    -0.26500
C2720       C  0.67548857  0.36305860  0.82532328    -0.14600
C2721       C  0.67919701  0.35660679  0.85709832     0.36000
C2722       C  0.66222925  0.32281925  0.87187137    -0.26000
C2723       C  0.64250271  0.29311495  0.85546090    -0.15200
C2724       C  0.63679391  0.30390812  0.82398014     0.37100
N2725       N  0.61279958  0.28317567  0.80689603    -0.89500
H2726       H  0.64905389  0.34597069  0.78572886     0.18200
H2727       H  0.66531486  0.31826316  0.89640329     0.18200
N2728       N  0.70022486  0.38428135  0.87421854    -0.88500
H2729       H  0.62171978  0.26758161  0.78709781     0.35600
H2730       H  0.59826341  0.30893030  0.79985832     0.40700
H2731       H  0.72160201  0.37681253  0.86579052     0.40300
H2732       H  0.70014532  0.37542220  0.89751795     0.35200
C2733       C  0.84662347  0.37065433  0.67210163    -0.26500
C2734       C  0.82025102  0.35489426  0.68599598    -0.14600
C2735       C  0.81402812  0.30750079  0.68444816     0.36000
C2736       C  0.83276602  0.27845558  0.66661519    -0.26000
C2737       C  0.85660104  0.29572706  0.64854196    -0.15200
C2738       C  0.86499120  0.34223286  0.65427230     0.37100
N2739       N  0.89251565  0.36140795  0.64331584    -0.89500
H2740       H  0.85341897  0.40607646  0.67493046     0.18200
H2741       H  0.82727828  0.24243766  0.66490791     0.18200
N2742       N  0.78822640  0.28908754  0.69974053    -0.88500
H2743       H  0.88748659  0.39002399  0.63010554     0.35600
H2744       H  0.90483611  0.37308729  0.66239017     0.40700
H2745       H  0.79203089  0.29186518  0.72350165     0.40300
H2746       H  0.78595056  0.25416518  0.69476903     0.35200
C2747       C  0.67845730  0.65863274  0.64791479    -0.26500
C2748       C  0.68073819  0.66363893  0.67995911    -0.14600
C2749       C  0.66451150  0.69820238  0.69521457     0.36000
C2750       C  0.64727414  0.72855747  0.67784785    -0.26000
C2751       C  0.64572028  0.72551366  0.64514299    -0.15200
C2752       C  0.66103311  0.68835521  0.63051215     0.37100
N2753       N  0.65912680  0.68077796  0.59778162    -0.89500
H2754       H  0.69011691  0.63095206  0.63621422     0.18200
H2755       H  0.63433679  0.75348476  0.69055973     0.18200
N2756       N  0.66449753  0.70104900  0.72841373    -0.88500
H2757       H  0.64988901  0.64830705  0.59389347     0.35600
H2758       H  0.68074346  0.68068502  0.58859119     0.40700
H2759       H  0.65438554  0.67131031  0.73666566     0.40300
H2760       H  0.65137012  0.72837500  0.73620593     0.35200
C2761       C  0.82824566  0.69760220  0.62818794    -0.26500
C2762       C  0.84899247  0.72675188  0.64350718    -0.14600
C2763       C  0.85348231  0.71925849  0.67573399     0.36000
C2764       C  0.83501502  0.68862707  0.69156535    -0.26000
C2765       C  0.81379940  0.66170631  0.67613635    -0.15200
C2766       C  0.81054684  0.66581588  0.64387462     0.37100
N2767       N  0.78960665  0.63865239  0.62619572    -0.89500
H2768       H  0.82549010  0.69995545  0.60343220     0.18200
H2769       H  0.83863800  0.68375067  0.71605797     0.18200
N2770       N  0.87808880  0.73904072  0.69241089    -0.88500
H2771       H  0.77450260  0.66106102  0.61598170     0.35600
H2772       H  0.77680671  0.61742827  0.64018081     0.40700
H2773       H  0.89149727  0.71257160  0.70051022     0.40300
H2774       H  0.86963375  0.75682130  0.71160351     0.35200
C2775       C  0.86300409  0.33273250  0.84683009    -0.26500
C2776       C  0.85075845  0.28926633  0.85366057    -0.14600
C2777       C  0.82449925  0.27660567  0.83695455     0.36000
C2778       C  0.80854850  0.30963073  0.82015127    -0.26000
C2779       C  0.81907781  0.35479182  0.81770241    -0.15200
C2780       C  0.84755201  0.36522755  0.82986915     0.37100
N2781       N  0.86139577  0.40876932  0.82480179    -0.89500
H2782       H  0.88504686  0.34258554  0.85479882     0.18200
H2783       H  0.78764326  0.29979607  0.80924692     0.18200
N2784       N  0.81380619  0.23048225  0.83660922    -0.88500
H2785       H  0.88176370  0.40331100  0.81348563     0.35600
H2786       H  0.86589790  0.42396983  0.84630429     0.40700
H2787       H  0.81379120  0.21872800  0.81370493     0.40300
H2788       H  0.79164059  0.23038031  0.84433644     0.35200
C2789       C  0.67166891  0.73859059  0.85416351    -0.26500
C2790       C  0.64011186  0.73336987  0.85355261    -0.14600
C2791       C  0.62826131  0.69925973  0.83305746     0.36000
C2792       C  0.64725332  0.66915652  0.81717197    -0.26000
C2793       C  0.67829094  0.67205795  0.82016179    -0.15200
C2794       C  0.69077204  0.70806405  0.83797806     0.37100
N2795       N  0.72270631  0.71213835  0.84088131    -0.89500
H2796       H  0.68183837  0.76612699  0.86728517     0.18200
H2797       H  0.63748756  0.64225051  0.80289912     0.18200
N2798       N  0.59660761  0.69298984  0.82980824    -0.88500
H2799       H  0.72833170  0.73905715  0.85594523     0.35600
H2800       H  0.73123441  0.72082560  0.81926508     0.40700
H2801       H  0.59119882  0.65963983  0.83624870     0.40300
H2802       H  0.59114181  0.69656063  0.80650524     0.35200
C2803       C  0.67289104  0.36136330  0.65052273    -0.26500
C2804       C  0.67346408  0.35860979  0.68265723    -0.14600
C2805       C  0.65581800  0.32547800  0.69730593     0.36000
C2806       C  0.63764743  0.29602649  0.67942070    -0.26000
C2807       C  0.63868546  0.29576286  0.64674442    -0.15200
C2808       C  0.65619503  0.33046082  0.63254473     0.37100
N2809       N  0.65793685  0.33364702  0.59964693    -0.89500
H2810       H  0.68605279  0.38736559  0.63911382     0.18200
H2811       H  0.62279641  0.27346081  0.69160298     0.18200
N2812       N  0.65550704  0.32286734  0.73033932    -0.88500
H2813       H  0.68033841  0.33080832  0.59299787     0.35600
H2814       H  0.65046377  0.36606325  0.59341994     0.40700
H2815       H  0.67665114  0.31196175  0.73733665     0.40300
H2816       H  0.64041253  0.29781158  0.73755409     0.35200
loop_ 
_geom_bond_atom_site_label_1 
_geom_bond_atom_site_label_2 
_geom_bond_distance 
_geom_bond_site_symmetry_2 
_ccdc_geom_bond_type 
O1          Zr13   2.435       .  S
O1            C3   1.286       .  A
O2          Zr39   2.437       .  S
O2            C3   1.289       .  A
C3          C608   1.471       .  S
O4          Zr16   2.420       .  S
O4            C6   1.284       .  A
O5          Zr40   2.439       .  S
O5            C6   1.289       .  A
C6          C636   1.474       .  S
O7          Zr16   2.422       .  S
O7            C9   1.283       .  A
O8          Zr39   2.453       .  S
O8            C9   1.292       .  A
C9          C692   1.479       .  S
O10         Zr13   2.452       .  S
O10          C12   1.291       .  A
O11         Zr40   2.439       .  S
O11          C12   1.288       .  A
C12         C681   1.488       .  S
Zr13         O14   2.434       .  S
Zr13         O15   2.437       .  S
Zr13         O19   2.380       .  S
Zr13         O20   2.367       .  S
Zr13         O43   2.370       .  S
Zr13         O45   2.377       .  S
O14          H57   0.990       .  S
O15          H56   0.990       .  S
O15          H60   0.990       .  S
Zr16         O17   2.435       .  S
Zr16         O18   2.436       .  S
Zr16         O20   2.373       .  S
Zr16         O19   2.375       .  S
Zr16         O44   2.363       .  S
Zr16         O46   2.366       .  S
O17          H58   0.990       .  S
O17          H61   0.990       .  S
O18          H51   0.990       .  S
O19         Zr39   2.384       .  S
O20         Zr40   2.386       .  S
O20          H47   0.966       .  S
O21         Zr33   2.429       .  S
O21          C23   1.286       .  A
O22         Zr40   2.438       .  S
O22          C23   1.289       .  A
C23         C597   1.490       .  S
O24         Zr36   2.435       .  S
O24          C26   1.289       .  A
O25         Zr39   2.440       .  S
O25          C26   1.288       .  A
C26         C622   1.497       .  S
O27         Zr36   2.444       .  S
O27          C29   1.289       .  A
O28         Zr40   2.433       .  S
O28          C29   1.288       .  A
C29         C653   1.479       .  S
O30         Zr33   2.434       .  S
O30          C32   1.287       .  A
O31         Zr39   2.437       .  S
O31          C32   1.289       .  A
C32         C667   1.491       .  S
Zr33         O34   2.436       .  S
Zr33         O35   2.434       .  S
Zr33         O41   2.369       .  S
Zr33         O42   2.360       .  S
Zr33         O45   2.366       .  S
Zr33         O43   2.373       .  S
O34          H54   0.990       .  S
O34          H59   0.990       .  S
O35          H55   0.990       .  S
Zr36         O37   2.437       .  S
Zr36         O38   2.437       .  S
Zr36         O42   2.365       .  S
Zr36         O41   2.368       .  S
Zr36         O46   2.368       .  S
Zr36         O44   2.372       .  S
O37          H53   0.990       .  S
O38          H52   0.990       .  S
O38          H62   0.990       .  S
Zr39         O42   2.387       .  S
Zr39         O44   2.388       .  S
Zr39         O45   2.395       .  S
Zr40         O41   2.393       .  S
Zr40         O43   2.389       .  S
Zr40         O46   2.387       .  S
O41          H49   0.966       .  S
O44          H48   0.966       .  S
O45          H50   0.966       .  S
O63         Zr75   2.455       .  S
O63          C65   1.292       .  A
O64        Zr805   2.421       .  S
O64          C65   1.286       .  A
C65         C580   1.478       .  S
O66         Zr78   2.424       .  S
O66          C68   1.285       .  A
O67       Zr2214   2.437   1_455  S
O67          C68   1.289       .  A
C68         C524   1.488       .  S
O69         Zr78   2.436       .  S
O69          C71   1.287       .  A
O70       Zr2213   2.430   1_455  S
O70          C71   1.287       .  A
C71         C552   1.473       .  S
O72         Zr75   2.464       .  S
O72          C74   1.292       .  A
O73        Zr806   2.420       .  S
O73          C74   1.285       .  A
C74         C538   1.484       .  S
Zr75         O76   2.435       .  S
Zr75         O77   2.436       .  S
Zr75         O81   2.379       .  S
Zr75         O82   2.369       .  S
Zr75        O809   2.367       .  S
Zr75        O811   2.374       .  S
O76         H119   0.990       .  S
O77         H118   0.990       .  S
O77         H122   0.990       .  S
Zr78         O79   2.436       .  S
Zr78         O80   2.435       .  S
Zr78       O1490   2.375       .  S
Zr78       O1489   2.369       .  S
Zr78        O810   2.366       .  S
Zr78        O812   2.369       .  S
O79         H120   0.990       .  S
O79         H123   0.990       .  S
O80         H113   0.990       .  S
O81       Zr1486   2.366       .  S
O81        Zr805   2.389       .  S
O82       Zr1486   2.372       .  S
O82        Zr806   2.389       .  S
O82         H109   0.967       .  S
O83         Zr95   2.440       .  S
O83          C85   1.287       .  A
O84        Zr102   2.429       .  S
O84          C85   1.287       .  A
C85         C510   1.476       .  S
O86         Zr98   2.435       .  S
O86          C88   1.286       .  A
O87       Zr1509   2.434   1_454  S
O87          C88   1.288       .  A
C88         C485   1.476       .  S
O89         Zr98   2.435       .  S
O89          C91   1.287       .  A
O90       Zr1510   2.427   1_455  S
O90          C91   1.286       .  A
C91         C499   1.475       .  S
O92         Zr95   2.443       .  S
O92          C94   1.288       .  A
O93        Zr101   2.431       .  S
O93          C94   1.287       .  A
C94         C569   1.481       .  S
Zr95         O96   2.436       .  S
Zr95         O97   2.432       .  S
Zr95        O103   2.374       .  S
Zr95        O104   2.369       .  S
Zr95        O107   2.366   1_554  S
Zr95        O105   2.367       .  S
O96         H116   0.990       .  S
O96         H121   0.990       .  S
O97         H117   0.990       .  S
Zr98         O99   2.434       .  S
Zr98        O100   2.435       .  S
Zr98        O108   2.369       .  S
Zr98        O106   2.370   1_554  S
Zr98       O1512   2.370   1_455  S
Zr98       O1511   2.371   1_455  S
O99         H115   0.990       .  S
O100        H114   0.990       .  S
O100        H124   0.990       .  S
Zr101       O768   2.420   1_554  S
Zr101      O2182   2.432   1_554  S
Zr101      O1495   2.427       .  S
Zr101       O104   2.381       .  S
Zr101       O107   2.393   1_554  S
Zr101       O785   2.385   1_554  S
Zr101      O1514   2.383       .  S
Zr102      O2179   2.435   1_554  S
Zr102       O777   2.410   1_554  S
Zr102      O1498   2.421       .  S
Zr102       O103   2.388       .  S
Zr102       O105   2.381       .  S
Zr102       O786   2.387   1_554  S
Zr102      O1516   2.379       .  S
O103      Zr1506   2.371       .  S
O103        H111   0.967       .  S
O104      Zr1506   2.368       .  S
O105       Zr779   2.366   1_554  S
O106       Zr782   2.375       .  S
O106      Zr1509   2.383   1_455  S
O106        H110   0.965       .  S
O107       Zr779   2.372       .  S
O107        H112   0.966       .  S
O108       Zr782   2.369   1_554  S
O108      Zr1510   2.375   1_455  S
C125        C454   1.571       .  S
C125        C468   1.566       .  S
C125        C583   1.573       .  S
C125        C664   1.575       .  S
O126       Zr138   2.474       .  S
O126        C128   1.295       .  A
O127       Zr868   2.422       .  S
O127        C128   1.285       .  A
C128        C471   1.491       .  S
O129       Zr141   2.433   1_565  S
O129        C131   1.288       .  A
O130       Zr869   2.441       .  S
O130        C131   1.288       .  A
C131        C443   1.500       .  S
O132       Zr141   2.431       .  S
O132        C134   1.285       .  A
O133       Zr868   2.438       .  S
O133        C134   1.289       .  A
C134        C415   1.474       .  S
O135       Zr138   2.463   1_565  S
O135        C137   1.293       .  A
O136       Zr869   2.412       .  S
O136        C137   1.284       .  A
C137        C398   1.479       .  S
Zr138       O139   2.433       .  S
Zr138       O140   2.438       .  S
Zr138       O144   2.377       .  S
Zr138       O145   2.381   1_545  S
Zr138       O872   2.372   1_545  S
Zr138       O874   2.368       .  S
O139        H182   0.990       .  S
O140        H181   0.990   1_545  S
O140        H185   0.990       .  S
Zr141       O142   2.435       .  S
Zr141       O143   2.433       .  S
Zr141       O145   2.369   1_545  S
Zr141       O144   2.373       .  S
Zr141       O873   2.368       .  S
Zr141       O875   2.368   1_545  S
O142        H183   0.990   1_545  S
O142        H186   0.990       .  S
O143        H176   0.990       .  S
O144       Zr868   2.383       .  S
O145       Zr869   2.388       .  S
O145        H172   0.966       .  S
O146       Zr158   2.450   1_565  S
O146        C148   1.289       .  A
O147       Zr165   2.426       .  S
O147        C148   1.286       .  A
C148        C426   1.477       .  S
O149       Zr161   2.419       .  S
O149        C151   1.283       .  A
O150       Zr164   2.432       .  S
O150        C151   1.288       .  A
C151        C373   1.466       .  S
O152       Zr161   2.435   1_565  S
O152        C154   1.285       .  A
O153       Zr165   2.423       .  S
O153        C154   1.286       .  A
C154        C387   1.474       .  S
O155       Zr158   2.455       .  S
O155        C157   1.291       .  A
O156       Zr164   2.436       .  S
O156        C157   1.288       .  A
C157        C359   1.487       .  S
Zr158       O159   2.434       .  S
Zr158       O160   2.434       .  S
Zr158       O166   2.378   1_545  S
Zr158       O167   2.373       .  S
Zr158       O170   2.366       .  S
Zr158       O168   2.373   1_545  S
O159        H179   0.990   1_545  S
O159        H184   0.990   1_545  S
O160        H180   0.990       .  S
Zr161       O162   2.434       .  S
Zr161       O163   2.438       .  S
Zr161       O167   2.378       .  S
Zr161       O166   2.369   1_545  S
Zr161       O171   2.361   1_544  S
Zr161       O169   2.368   1_554  S
O162        H178   0.990   1_545  S
O163        H177   0.990       .  S
O163        H187   0.990   1_545  S
Zr164       O831   2.426   1_554  S
Zr164       O837   2.434   1_554  S
Zr164       O167   2.385       .  S
Zr164       O169   2.384   1_554  S
Zr164       O170   2.390       .  S
Zr164       O848   2.389   1_554  S
Zr165       O834   2.432   1_554  S
Zr165       O840   2.406   1_554  S
Zr165       O166   2.384       .  S
Zr165       O168   2.388       .  S
Zr165       O171   2.376   1_554  S
Zr165       O849   2.389   1_554  S
O166        H174   0.967       .  S
O168       Zr842   2.373   1_564  S
O169       Zr845   2.368       .  S
O169        H173   0.965       .  S
O170       Zr842   2.376   1_554  S
O170        H175   0.966       .  S
O171       Zr845   2.368   1_565  S
C188        C345   1.560       .  S
C188        C440   1.572       .  S
C188        C527   1.570       .  S
C188        C678   1.577       .  S
O189       Zr201   2.418       .  S
O189        C191   1.284       .  A
O190      Zr1635   2.452       .  S
O190        C191   1.292       .  A
C191        C328   1.492       .  S
O192       Zr204   2.415   1_565  S
O192        C194   1.283       .  A
O193       Zr228   2.441       .  S
O193        C194   1.288       .  A
C194        C286   1.494       .  S
O195       Zr204   2.432       .  S
O195        C197   1.288       .  A
O196      Zr1635   2.440       .  S
O196        C197   1.288       .  A
C197        C457   1.496       .  S
O198       Zr201   2.437   1_565  S
O198        C200   1.286       .  A
O199       Zr228   2.436       .  S
O199        C200   1.288       .  A
C200        C314   1.476       .  S
Zr201       O202   2.436       .  S
Zr201       O203   2.436       .  S
Zr201       O207   2.367       .  S
Zr201       O208   2.364   1_545  S
Zr201       O231   2.369   1_545  S
Zr201      O1641   2.375       .  S
O202        H245   0.990   1_545  S
O203        H244   0.990   1_545  S
O203        H248   0.990       .  S
Zr204       O205   2.436       .  S
Zr204       O206   2.435       .  S
Zr204       O208   2.373   1_545  S
Zr204       O207   2.359       .  S
Zr204       O234   2.367   1_545  S
Zr204      O1640   2.360       .  S
O205        H246   0.990       .  S
O205        H249   0.990       .  S
O206        H239   0.990       .  S
O207      Zr1635   2.376       .  S
O208       Zr228   2.383       .  S
O208        H235   0.966       .  S
O209       Zr221   2.437   1_565  S
O209        C211   1.287       .  A
O210      Zr1636   2.444   1_455  S
O210        C211   1.290       .  A
C211        C300   1.480       .  S
O212       Zr224   2.450       .  S
O212        C214   1.290       .  A
O213       Zr227   2.426   1_455  S
O213        C214   1.287       .  A
C214        C258   1.475       .  S
O215       Zr224   2.459   1_565  S
O215        C217   1.292       .  A
O216      Zr1636   2.414   1_455  S
O216        C217   1.283       .  A
C217        C342   1.477       .  S
O218       Zr221   2.438       .  S
O218        C220   1.287       .  A
O219       Zr227   2.429   1_455  S
O219        C220   1.287       .  A
C220        C272   1.471       .  S
Zr221       O222   2.437       .  S
Zr221       O223   2.434       .  S
Zr221       O229   2.366   1_545  S
Zr221       O230   2.363       .  S
Zr221       O233   2.381   1_455  S
Zr221      O1639   2.379   1_445  S
O222        H242   0.990       .  S
O222        H247   0.990   1_545  S
O223        H243   0.990       .  S
Zr224       O225   2.435       .  S
Zr224       O226   2.434       .  S
Zr224       O230   2.371       .  S
Zr224       O229   2.368   1_545  S
Zr224       O232   2.378   1_455  S
Zr224      O1642   2.369   1_445  S
O225        H241   0.990   1_545  S
O226        H240   0.990   1_545  S
O226        H250   0.990       .  S
Zr227      O1598   2.450       .  S
Zr227      O1604   2.446       .  S
Zr227       O230   2.390   1_655  S
Zr227       O232   2.395       .  S
Zr227       O233   2.396       .  S
Zr227      O1615   2.376       .  S
Zr228      O1618   2.433       .  S
Zr228      O1624   2.423       .  S
Zr228       O231   2.389       .  S
Zr228       O234   2.389       .  S
Zr228      O1637   2.393       .  S
O229      Zr1636   2.393   1_455  S
O229        H237   0.966       .  S
O231      Zr1629   2.379   1_565  S
O232      Zr1612   2.364       .  S
O232        H236   0.966       .  S
O233      Zr1609   2.370       .  S
O233        H238   0.966       .  S
O234      Zr1632   2.366   1_565  S
C251        C317   1.572       .  S
C251        C429   1.573       .  S
C251        C513   1.568       .  S
C251        C650   1.571       .  S
C252        C275   1.575       .  S
C252        C370   1.562       .  S
C252        C482   1.576       .  S
C252        C695   1.564       .  S
C253        C331   1.574       .  S
C253        C356   1.583       .  S
C253        C566   1.565       .  S
C253        C625   1.565       .  S
C254        C303   1.585       .  S
C254        C384   1.573       .  S
C254        C496   1.577       .  S
C254        C639   1.565       .  S
C255        C261   1.578       .  S
C255        C412   1.569       .  S
C255        C555   1.576       .  S
C255        C611   1.564       .  S
C256        C289   1.570       .  S
C256        C401   1.569       .  S
C256        C541   1.572       .  S
C256        C594   1.584       .  S
C257        C258   1.395       .  A
C257        C262   1.401       .  A
C257        H264   1.085       .  S
C258        C259   1.404       .  A
C259        C260   1.398       .  A
C259        N266   1.433       .  S
C260        C261   1.422       .  A
C260        H265   1.078       .  S
C261        C262   1.439       .  A
C262        N263   1.432       .  S
N263        H267   1.041       .  S
N263        H268   1.041       .  S
N266        H269   1.046       .  S
N266        H270   1.045       .  S
C271        C272   1.396       .  A
C271        C276   1.403       .  A
C271        H278   1.084       .  S
C272        C273   1.403       .  A
C273        C274   1.405       .  A
C273        N280   1.439       .  S
C274        C275   1.420       .  A
C274        H279   1.077       .  S
C275        C276   1.428       .  A
C276        N277   1.432       .  S
N277        H281   1.046       .  S
N277        H282   1.046       .  S
N280        H283   1.046       .  S
N280        H284   1.046       .  S
C285        C286   1.406       .  A
C285        C290   1.414       .  A
C285        H292   1.083       .  S
C286        C287   1.412       .  A
C287        C288   1.387       .  A
C287        N294   1.435       .  S
C288        C289   1.413       .  A
C288        H293   1.077       .  S
C289        C290   1.426       .  A
C290        N291   1.431       .  S
N291        H295   1.045       .  S
N291        H296   1.046       .  S
N294        H297   1.046       .  S
N294        H298   1.046       .  S
C299        C300   1.397       .  A
C299        C304   1.400       .  A
C299        H306   1.085       .  S
C300        C301   1.398       .  A
C301        C302   1.405       .  A
C301        N308   1.433       .  S
C302        C303   1.427       .  A
C302        H307   1.076       .  S
C303        C304   1.439       .  A
C304        N305   1.434       .  S
N305        H309   1.042       .  S
N305        H310   1.040       .  S
N308        H311   1.046       .  S
N308        H312   1.046       .  S
C313        C314   1.396       .  A
C313        C318   1.405       .  A
C313        H320   1.084       .  S
C314        C315   1.403       .  A
C315        C316   1.403       .  A
C315        N322   1.432       .  S
C316        C317   1.419       .  A
C316        H321   1.083       .  S
C317        C318   1.431       .  A
C318        N319   1.432       .  S
N319        H323   1.046       .  S
N319        H324   1.046       .  S
N322        H325   1.046       .  S
N322        H326   1.046       .  S
C327        C328   1.400       .  A
C327        C332   1.408       .  A
C327        H334   1.084       .  S
C328        C329   1.415       .  A
C329        C330   1.402       .  A
C329        N336   1.439       .  S
C330        C331   1.415       .  A
C330        H335   1.080       .  S
C331        C332   1.426       .  A
C332        N333   1.428       .  S
N333        H337   1.045       .  S
N333        H338   1.046       .  S
N336        H339   1.046       .  S
N336        H340   1.046       .  S
C341        C342   1.395       .  A
C341        C346   1.397       .  A
C341        H348   1.084       .  S
C342        C343   1.413       .  A
C343        C344   1.406       .  A
C343        N350   1.433       .  S
C344        C345   1.416       .  A
C344        H349   1.080       .  S
C345        C346   1.424       .  A
C346        N347   1.432       .  S
N347        H351   1.046       .  S
N347        H352   1.045       .  S
N350        H353   1.045       .  S
N350        H354   1.046       .  S
C355        C356   1.418       .  A
C355        C360   1.402       .  A
C355        H362   1.081       .  S
C356        C357   1.443       .  A
C357        C358   1.412       .  A
C357        N364   1.437       .  S
C358        C359   1.401       .  A
C358        H363   1.084       .  S
C359        C360   1.404       .  A
C360        N361   1.439       .  S
N361        H365   1.046       .  S
N361        H366   1.046       .  S
N364        H367   1.036       .  S
N364        H368   1.045       .  S
C369        C370   1.417       .  A
C369        C374   1.397       .  A
C369        H376   1.084       .  S
C370        C371   1.433       .  A
C371        C372   1.402       .  A
C371        N378   1.432       .  S
C372        C373   1.393       .  A
C372        H377   1.085       .  S
C373        C374   1.402       .  A
C374        N375   1.433       .  S
N375        H379   1.046       .  S
N375        H380   1.046       .  S
N378        H381   1.046       .  S
N378        H382   1.046       .  S
C383        C384   1.420       .  A
C383        C388   1.406       .  A
C383        H390   1.083       .  S
C384        C385   1.438       .  A
C385        C386   1.401       .  A
C385        N392   1.431       .  S
C386        C387   1.392       .  A
C386        H391   1.085       .  S
C387        C388   1.405       .  A
C388        N389   1.438       .  S
N389        H393   1.046       .  S
N389        H394   1.046       .  S
N392        H395   1.046       .  S
N392        H396   1.046       .  S
C397        C398   1.396       .  A
C397        C402   1.402       .  A
C397        H404   1.084       .  S
C398        C399   1.407       .  A
C399        C400   1.404       .  A
C399        N406   1.429       .  S
C400        C401   1.411       .  A
C400        H405   1.079       .  S
C401        C402   1.428       .  A
C402        N403   1.431       .  S
N403        H407   1.045       .  S
N403        H408   1.046       .  S
N406        H409   1.046       .  S
N406        H410   1.046       .  S
C411        C412   1.420       .  A
C411        C416   1.405       .  A
C411        H418   1.083       .  S
C412        C413   1.435       .  A
C413        C414   1.403       .  A
C413        N420   1.431       .  S
C414        C415   1.392       .  A
C414        H419   1.082       .  S
C415        C416   1.405       .  A
C416        N417   1.438       .  S
N417        H421   1.046       .  S
N417        H422   1.046       .  S
N420        H423   1.046       .  S
N420        H424   1.046       .  S
C425        C426   1.397       .  A
C425        C430   1.407       .  A
C425        H432   1.085       .  S
C426        C427   1.404       .  A
C427        C428   1.405       .  A
C427        N434   1.438       .  S
C428        C429   1.418       .  A
C428        H433   1.083       .  S
C429        C430   1.433       .  A
C430        N431   1.432       .  S
N431        H435   1.046       .  S
N431        H436   1.046       .  S
N434        H437   1.044       .  S
N434        H438   1.045       .  S
C439        C440   1.416       .  A
C439        C444   1.407       .  A
C439        H446   1.083       .  S
C440        C441   1.431       .  A
C441        C442   1.397       .  A
C441        N448   1.434       .  S
C442        C443   1.401       .  A
C442        H447   1.084       .  S
C443        C444   1.417       .  A
C444        N445   1.429       .  S
N445        H449   1.045       .  S
N445        H450   1.041       .  S
N448        H451   1.046       .  S
N448        H452   1.046       .  S
C453        C454   1.418       .  A
C453        C458   1.413       .  A
C453        H460   1.082       .  S
C454        C455   1.430       .  A
C455        C456   1.396       .  A
C455        N462   1.433       .  S
C456        C457   1.401       .  A
C456        H461   1.084       .  S
C457        C458   1.411       .  A
C458        N459   1.431       .  S
N459        H463   1.045       .  S
N459        H464   1.046       .  S
N462        H465   1.046       .  S
N462        H466   1.046       .  S
C467        C468   1.412       .  A
C467        C472   1.412       .  A
C467        H474   1.079       .  S
C468        C469   1.427       .  A
C469        C470   1.404       .  A
C469        N476   1.432       .  S
C470        C471   1.398       .  A
C470        H475   1.084       .  S
C471        C472   1.415       .  A
C472        N473   1.437       .  S
N473        H477   1.046       .  S
N473        H478   1.045       .  S
N476        H479   1.045       .  S
N476        H480   1.046       .  S
C481        C482   1.419       .  A
C481        C486   1.405       .  A
C481        H488   1.083       .  S
C482        C483   1.435       .  A
C483        C484   1.405       .  A
C483        N490   1.431       .  S
C484        C485   1.395       .  A
C484        H489   1.085       .  S
C485        C486   1.404       .  A
C486        N487   1.438       .  S
N487        H491   1.046       .  S
N487        H492   1.046       .  S
N490        H493   1.046       .  S
N490        H494   1.046       .  S
C495        C496   1.421       .  A
C495        C500   1.408       .  A
C495        H502   1.076       .  S
C496        C497   1.429       .  A
C497        C498   1.400       .  A
C497        N504   1.433       .  S
C498        C499   1.396       .  A
C498        H503   1.084       .  S
C499        C500   1.406       .  A
C500        N501   1.439       .  S
N501        H505   1.046       .  S
N501        H506   1.045       .  S
N504        H507   1.046       .  S
N504        H508   1.046       .  S
C509        C510   1.400       .  A
C509        C514   1.405       .  A
C509        H516   1.084       .  S
C510        C511   1.407       .  A
C511        C512   1.398       .  A
C511        N518   1.434       .  S
C512        C513   1.419       .  A
C512        H517   1.077       .  S
C513        C514   1.426       .  A
C514        N515   1.433       .  S
N515        H519   1.046       .  S
N515        H520   1.045       .  S
N518        H521   1.045       .  S
N518        H522   1.046       .  S
C523        C524   1.402       .  A
C523        C528   1.409       .  A
C523        H530   1.084       .  S
C524        C525   1.410       .  A
C525        C526   1.394       .  A
C525        N532   1.434       .  S
C526        C527   1.416       .  A
C526        H531   1.081       .  S
C527        C528   1.425       .  A
C528        N529   1.429       .  S
N529        H533   1.046       .  S
N529        H534   1.046       .  S
N532        H535   1.046       .  S
N532        H536   1.046       .  S
C537        C538   1.404       .  A
C537        C542   1.412       .  A
C537        H544   1.084       .  S
C538        C539   1.408       .  A
C539        C540   1.395       .  A
C539        N546   1.433       .  S
C540        C541   1.419       .  A
C540        H545   1.084       .  S
C541        C542   1.427       .  A
C542        N543   1.432       .  S
N543        H547   1.045       .  S
N543        H548   1.046       .  S
N546        H549   1.046       .  S
N546        H550   1.044       .  S
C551        C552   1.397       .  A
C551        C556   1.406       .  A
C551        H558   1.085       .  S
C552        C553   1.410       .  A
C553        C554   1.399       .  A
C553        N560   1.440       .  S
C554        C555   1.420       .  A
C554        H559   1.082       .  S
C555        C556   1.431       .  A
C556        N557   1.431       .  S
N557        H561   1.046       .  S
N557        H562   1.046       .  S
N560        H563   1.043       .  S
N560        H564   1.046       .  S
C565        C566   1.414       .  A
C565        C570   1.393       .  A
C565        H572   1.076       .  S
C566        C567   1.427       .  A
C567        C568   1.411       .  A
C567        N574   1.432       .  S
C568        C569   1.403       .  A
C568        H573   1.084       .  S
C569        C570   1.410       .  A
C570        N571   1.433       .  S
N571        H575   1.043       .  S
N571        H576   1.046       .  S
N574        H577   1.045       .  S
N574        H578   1.045       .  S
C579        C580   1.394       .  A
C579        C584   1.398       .  A
C579        H586   1.085       .  S
C580        C581   1.409       .  A
C581        C582   1.413       .  A
C581        N588   1.438       .  S
C582        C583   1.417       .  A
C582        H587   1.079       .  S
C583        C584   1.427       .  A
C584        N585   1.433       .  S
N585        H589   1.046       .  S
N585        H590   1.046       .  S
N588        H591   1.045       .  S
N588        H592   1.046       .  S
C593        C594   1.418       .  A
C593        C598   1.392       .  A
C593        H600   1.080       .  S
C594        C595   1.443       .  A
C595        C596   1.410       .  A
C595        N602   1.437       .  S
C596        C597   1.401       .  A
C596        H601   1.084       .  S
C597        C598   1.407       .  A
C598        N599   1.433       .  S
N599        H603   1.046       .  S
N599        H604   1.046       .  S
N602        H605   1.032       .  S
N602        H606   1.046       .  S
C607        C608   1.392       .  A
C607        C612   1.401       .  A
C607        H614   1.076       .  S
C608        C609   1.403       .  A
C609        C610   1.406       .  A
C609        N616   1.438       .  S
C610        C611   1.419       .  A
C610        H615   1.083       .  S
C611        C612   1.429       .  A
C612        N613   1.432       .  S
N613        H617   1.046       .  S
N613        H618   1.046       .  S
N616        H619   1.046       .  S
N616        H620   1.046       .  S
C621        C622   1.401       .  A
C621        C626   1.395       .  A
C621        H628   1.083       .  S
C622        C623   1.414       .  A
C623        C624   1.416       .  A
C623        N630   1.437       .  S
C624        C625   1.418       .  A
C624        H629   1.083       .  S
C625        C626   1.429       .  A
C626        N627   1.434       .  S
N627        H631   1.046       .  S
N627        H632   1.046       .  S
N630        H633   1.046       .  S
N630        H634   1.046       .  S
C635        C636   1.397       .  A
C635        C640   1.399       .  A
C635        H642   1.085       .  S
C636        C637   1.406       .  A
C637        C638   1.408       .  A
C637        N644   1.439       .  S
C638        C639   1.418       .  A
C638        H643   1.078       .  S
C639        C640   1.429       .  A
C640        N641   1.434       .  S
N641        H645   1.046       .  S
N641        H646   1.045       .  S
N644        H647   1.046       .  S
N644        H648   1.045       .  S
C649        C650   1.420       .  A
C649        C654   1.402       .  A
C649        H656   1.078       .  S
C650        C651   1.428       .  A
C651        C652   1.403       .  A
C651        N658   1.433       .  S
C652        C653   1.398       .  A
C652        H657   1.084       .  S
C653        C654   1.409       .  A
C654        N655   1.434       .  S
N655        H659   1.045       .  S
N655        H660   1.046       .  S
N658        H661   1.046       .  S
N658        H662   1.045       .  S
C663        C664   1.419       .  A
C663        C668   1.397       .  A
C663        H670   1.081       .  S
C664        C665   1.425       .  A
C665        C666   1.411       .  A
C665        N672   1.428       .  S
C666        C667   1.403       .  A
C666        H671   1.083       .  S
C667        C668   1.409       .  A
C668        N669   1.434       .  S
N669        H673   1.046       .  S
N669        H674   1.046       .  S
N672        H675   1.046       .  S
N672        H676   1.046       .  S
C677        C678   1.418       .  A
C677        C682   1.415       .  A
C677        H684   1.079       .  S
C678        C679   1.426       .  A
C679        C680   1.402       .  A
C679        N686   1.433       .  S
C680        C681   1.398       .  A
C680        H685   1.084       .  S
C681        C682   1.411       .  A
C682        N683   1.438       .  S
N683        H687   1.046       .  S
N683        H688   1.045       .  S
N686        H689   1.046       .  S
N686        H690   1.046       .  S
C691        C692   1.399       .  A
C691        C696   1.404       .  A
C691        H698   1.084       .  S
C692        C693   1.404       .  A
C693        C694   1.405       .  A
C693        N700   1.433       .  S
C694        C695   1.415       .  A
C694        H699   1.078       .  S
C695        C696   1.425       .  A
C696        N697   1.432       .  S
N697        H701   1.045       .  S
N697        H702   1.045       .  S
N700        H703   1.045       .  S
N700        H704   1.046       .  S
O705       Zr717   2.435       .  S
O705        C707   1.287       .  A
O706       Zr743   2.430       .  S
O706        C707   1.288       .  A
C707       C1312   1.468       .  S
O708       Zr720   2.423       .  S
O708        C710   1.285       .  A
O709       Zr744   2.429       .  S
O709        C710   1.287       .  A
C710       C1340   1.469       .  S
O711       Zr720   2.425       .  S
O711        C713   1.285       .  A
O712       Zr743   2.434       .  S
O712        C713   1.288       .  A
C713       C1396   1.473       .  S
O714       Zr717   2.455       .  S
O714        C716   1.291       .  A
O715       Zr744   2.431       .  S
O715        C716   1.287       .  A
C716       C1385   1.484       .  S
Zr717       O718   2.434       .  S
Zr717       O719   2.436       .  S
Zr717       O723   2.381       .  S
Zr717       O724   2.366       .  S
Zr717       O747   2.364       .  S
Zr717       O749   2.379       .  S
O718        H761   0.990       .  S
O719        H760   0.990       .  S
O719        H764   0.990       .  S
Zr720       O721   2.436       .  S
Zr720       O722   2.434       .  S
Zr720       O724   2.368       .  S
Zr720       O723   2.366       .  S
Zr720       O748   2.365       .  S
Zr720       O750   2.366       .  S
O721        H762   0.990       .  S
O721        H765   0.990       .  S
O722        H755   0.990       .  S
O723       Zr743   2.386       .  S
O724       Zr744   2.385       .  S
O724        H751   0.966       .  S
O725       Zr737   2.427       .  S
O725        C727   1.286       .  A
O726       Zr744   2.441       .  S
O726        C727   1.290       .  A
C727       C1301   1.492       .  S
O728       Zr740   2.423       .  S
O728        C730   1.287       .  A
O729       Zr743   2.444       .  S
O729        C730   1.289       .  A
C730       C1326   1.496       .  S
O731       Zr740   2.438       .  S
O731        C733   1.287       .  A
O732       Zr744   2.421       .  S
O732        C733   1.285       .  A
C733       C1357   1.468       .  S
O734       Zr737   2.435       .  S
O734        C736   1.287       .  A
O735       Zr743   2.433       .  S
O735        C736   1.288       .  A
C736       C1371   1.493       .  S
Zr737       O738   2.436       .  S
Zr737       O739   2.434       .  S
Zr737       O745   2.373       .  S
Zr737       O746   2.358       .  S
Zr737       O749   2.367       .  S
Zr737       O747   2.372       .  S
O738        H758   0.990       .  S
O738        H763   0.990       .  S
O739        H759   0.990       .  S
Zr740       O741   2.435       .  S
Zr740       O742   2.435       .  S
Zr740       O746   2.364       .  S
Zr740       O745   2.367       .  S
Zr740       O750   2.362       .  S
Zr740       O748   2.369       .  S
O741        H757   0.990       .  S
O742        H756   0.990       .  S
O742        H766   0.990       .  S
Zr743       O746   2.378       .  S
Zr743       O748   2.389       .  S
Zr743       O749   2.393       .  S
Zr744       O745   2.388       .  S
Zr744       O747   2.383       .  S
Zr744       O750   2.385       .  S
O745        H753   0.966       .  S
O748        H752   0.966       .  S
O749        H754   0.966       .  S
O767       Zr779   2.458       .  S
O767        C769   1.292       .  A
O768        C769   1.285       .  A
C769       C1284   1.480       .  S
O770       Zr782   2.435       .  S
O770        C772   1.287       .  A
O771      Zr1510   2.446   1_456  S
O771        C772   1.290       .  A
C772       C1228   1.497       .  S
O773       Zr782   2.432       .  S
O773        C775   1.286       .  A
O774      Zr1509   2.429   1_455  S
O774        C775   1.286       .  A
C775       C1256   1.469       .  S
O776       Zr779   2.461       .  S
O776        C778   1.292       .  A
O777        C778   1.283       .  A
C778       C1242   1.480       .  S
Zr779       O780   2.434       .  S
Zr779       O781   2.436       .  S
Zr779       O785   2.375       .  S
Zr779       O786   2.370       .  S
O780        H823   0.990       .  S
O781        H822   0.990       .  S
O781        H826   0.990       .  S
Zr782       O783   2.436       .  S
Zr782       O784   2.433       .  S
Zr782      O2194   2.367   1_455  S
Zr782      O2193   2.369   1_455  S
O783        H824   0.990       .  S
O783        H827   0.990       .  S
O784        H817   0.990       .  S
O785      Zr2190   2.370       .  S
O786      Zr2190   2.369       .  S
O786        H813   0.967       .  S
O787       Zr799   2.430       .  S
O787        C789   1.286       .  A
O788       Zr806   2.442       .  S
O788        C789   1.289       .  A
C789       C1214   1.473       .  S
O790       Zr802   2.426       .  S
O790        C792   1.285       .  A
O791      Zr2213   2.434   1_455  S
O791        C792   1.288       .  A
C792       C1189   1.470       .  S
O793       Zr802   2.429       .  S
O793        C795   1.286       .  A
O794      Zr2214   2.432   1_455  S
O794        C795   1.288       .  A
C795       C1203   1.474       .  S
O796       Zr799   2.449       .  S
O796        C798   1.289       .  A
O797       Zr805   2.426       .  S
O797        C798   1.286       .  A
C798       C1273   1.480       .  S
Zr799       O800   2.437       .  S
Zr799       O801   2.434       .  S
Zr799       O807   2.378       .  S
Zr799       O808   2.370       .  S
Zr799       O811   2.361       .  S
Zr799       O809   2.374       .  S
O800        H820   0.990       .  S
O800        H825   0.990       .  S
O801        H821   0.990       .  S
Zr802       O803   2.434       .  S
Zr802       O804   2.437       .  S
Zr802      O2216   2.373   1_455  S
Zr802      O2215   2.369   1_455  S
Zr802       O812   2.367       .  S
Zr802       O810   2.374       .  S
O803        H819   0.990       .  S
O804        H818   0.990       .  S
O804        H828   0.990       .  S
Zr805      O1478   2.426       .  S
Zr805      O2199   2.438       .  S
Zr805       O808   2.383       .  S
Zr805      O2218   2.381       .  S
Zr805       O811   2.391       .  S
Zr806      O1475   2.438       .  S
Zr806      O2202   2.426       .  S
Zr806       O807   2.390       .  S
Zr806       O809   2.385       .  S
Zr806      O2220   2.382       .  S
O807      Zr2210   2.370       .  S
O807        H815   0.966       .  S
O808      Zr2210   2.370       .  S
O810      Zr2213   2.384   1_455  S
O810        H814   0.966       .  S
O811        H816   0.966       .  S
O812      Zr2214   2.382   1_455  S
C829       C1158   1.565       .  S
C829       C1172   1.561       .  S
C829       C1287   1.572       .  S
C829       C1368   1.574       .  S
O830       Zr842   2.462       .  S
O830        C832   1.293       .  A
O831        C832   1.286       .  A
C832       C1175   1.483       .  S
O833       Zr845   2.432   1_565  S
O833        C835   1.288       .  A
O834        C835   1.286       .  A
C835       C1147   1.496       .  S
O836       Zr845   2.438       .  S
O836        C838   1.287       .  A
O837        C838   1.288       .  A
C838       C1119   1.472       .  S
O839       Zr842   2.478   1_565  S
O839        C841   1.295       .  A
O840        C841   1.282       .  A
C841       C1102   1.482       .  S
Zr842       O843   2.436       .  S
Zr842       O844   2.438       .  S
Zr842       O848   2.379       .  S
Zr842       O849   2.374   1_545  S
O843        H886   0.990   1_545  S
O844        H885   0.990       .  S
O844        H889   0.990   1_545  S
Zr845       O846   2.436       .  S
Zr845       O847   2.433       .  S
Zr845       O849   2.373   1_545  S
Zr845       O848   2.370       .  S
O846        H887   0.990   1_545  S
O846        H890   0.990       .  S
O847        H880   0.990       .  S
O849        H876   0.966       .  S
O850       Zr862   2.444   1_565  S
O850        C852   1.288       .  A
O851       Zr869   2.424       .  S
O851        C852   1.286       .  A
C852       C1130   1.471       .  S
O853       Zr865   2.421       .  S
O853        C855   1.284       .  A
O854       Zr868   2.417       .  S
O854        C855   1.285       .  A
C855       C1077   1.461       .  S
O856       Zr865   2.432   1_565  S
O856        C858   1.286       .  A
O857       Zr869   2.416       .  S
O857        C858   1.285       .  A
C858       C1091   1.470       .  S
O859       Zr862   2.450       .  S
O859        C861   1.290       .  A
O860       Zr868   2.426       .  S
O860        C861   1.286       .  A
C861       C1063   1.477       .  S
Zr862       O863   2.436       .  S
Zr862       O864   2.434       .  S
Zr862       O870   2.373   1_545  S
Zr862       O871   2.371       .  S
Zr862       O874   2.368       .  S
Zr862       O872   2.371   1_545  S
O863        H883   0.990   1_545  S
O863        H888   0.990       .  S
O864        H884   0.990       .  S
Zr865       O866   2.436       .  S
Zr865       O867   2.435       .  S
Zr865       O871   2.377       .  S
Zr865       O870   2.371   1_545  S
Zr865       O875   2.364   1_545  S
Zr865       O873   2.363       .  S
O866        H882   0.990   1_545  S
O867        H881   0.990   1_545  S
O867        H891   0.990       .  S
Zr868       O871   2.387       .  S
Zr868       O873   2.381       .  S
Zr868       O874   2.387       .  S
Zr869       O870   2.386       .  S
Zr869       O872   2.387       .  S
Zr869       O875   2.376       .  S
O870        H878   0.966       .  S
O873        H877   0.966       .  S
O874        H879   0.966       .  S
C892       C1049   1.565       .  S
C892       C1144   1.569       .  S
C892       C1231   1.578       .  S
C892       C1382   1.576       .  S
O893       Zr905   2.421       .  S
O893        C895   1.284       .  A
O894      Zr2339   2.454       .  S
O894        C895   1.292       .  A
C895       C1032   1.498       .  S
O896       Zr908   2.417   1_565  S
O896        C898   1.283       .  A
O897       Zr932   2.448       .  S
O897        C898   1.290       .  A
C898        C990   1.497       .  S
O899       Zr908   2.423       .  S
O899        C901   1.286       .  A
O900      Zr2339   2.428       .  S
O900        C901   1.286       .  A
C901       C1161   1.489       .  S
O902       Zr905   2.418   1_565  S
O902        C904   1.282       .  A
O903       Zr932   2.439       .  S
O903        C904   1.289       .  A
C904       C1018   1.467       .  S
Zr905       O906   2.433       .  S
Zr905       O907   2.435       .  S
Zr905       O911   2.365       .  S
Zr905       O912   2.365   1_545  S
Zr905       O935   2.371   1_545  S
Zr905      O2345   2.368       .  S
O906        H949   0.990       .  S
O907        H948   0.990   1_545  S
O907        H952   0.990   1_545  S
Zr908       O909   2.435       .  S
Zr908       O910   2.435       .  S
Zr908       O912   2.364   1_545  S
Zr908       O911   2.360       .  S
Zr908      O2344   2.357       .  S
Zr908       O938   2.365   1_545  S
O909        H950   0.990       .  S
O909        H953   0.990       .  S
O910        H943   0.990   1_545  S
O911      Zr2339   2.376       .  S
O912       Zr932   2.381       .  S
O912        H939   0.966       .  S
O913       Zr925   2.435   1_565  S
O913        C915   1.287       .  A
O914      Zr2340   2.438   1_455  S
O914        C915   1.289       .  A
C915       C1004   1.475       .  S
O916       Zr928   2.436       .  S
O916        C918   1.287       .  A
O917       Zr931   2.422   1_455  S
O917        C918   1.286       .  A
C918        C962   1.466       .  S
O919       Zr928   2.465   1_565  S
O919        C921   1.294       .  A
O920      Zr2340   2.427   1_455  S
O920        C921   1.286       .  A
C921       C1046   1.485       .  S
O922       Zr925   2.442       .  S
O922        C924   1.288       .  A
O923       Zr931   2.426   1_455  S
O923        C924   1.287       .  A
C924        C976   1.473       .  S
Zr925       O926   2.439       .  S
Zr925       O927   2.434       .  S
Zr925       O933   2.367   1_545  S
Zr925       O934   2.364       .  S
Zr925       O937   2.378   1_455  S
Zr925      O2343   2.382   1_445  S
O926        H946   0.990       .  S
O926        H951   0.990   1_545  S
O927        H947   0.990       .  S
Zr928       O929   2.435       .  S
Zr928       O930   2.435       .  S
Zr928       O934   2.376       .  S
Zr928       O933   2.361   1_545  S
Zr928      O2346   2.365   1_445  S
Zr928       O936   2.378   1_455  S
O929        H945   0.990       .  S
O930        H944   0.990       .  S
O930        H954   0.990       .  S
Zr931      O2302   2.446       .  S
Zr931      O2308   2.440       .  S
Zr931      O2319   2.376       .  S
Zr931       O934   2.392   1_655  S
Zr931       O936   2.393       .  S
Zr931       O937   2.386       .  S
Zr932      O2322   2.435       .  S
Zr932      O2328   2.412       .  S
Zr932      O2341   2.399       .  S
Zr932       O935   2.387       .  S
Zr932       O938   2.388       .  S
O933      Zr2340   2.393   1_455  S
O933        H941   0.965       .  S
O935      Zr2333   2.376   1_565  S
O936      Zr2316   2.357       .  S
O936        H940   0.966       .  S
O937      Zr2313   2.367       .  S
O937        H942   0.966       .  S
O938      Zr2336   2.362   1_565  S
C955       C1021   1.561       .  S
C955       C1133   1.564       .  S
C955       C1217   1.566       .  S
C955       C1354   1.566       .  S
C956        C979   1.578       .  S
C956       C1074   1.558       .  S
C956       C1186   1.572       .  S
C956       C1399   1.561       .  S
C957       C1035   1.577       .  S
C957       C1060   1.580       .  S
C957       C1270   1.565       .  S
C957       C1329   1.564       .  S
C958       C1007   1.578       .  S
C958       C1088   1.563       .  S
C958       C1200   1.578       .  S
C958       C1343   1.561       .  S
C959        C965   1.574       .  S
C959       C1116   1.566       .  S
C959       C1259   1.573       .  S
C959       C1315   1.560       .  S
C960        C993   1.573       .  S
C960       C1105   1.570       .  S
C960       C1245   1.569       .  S
C960       C1298   1.585       .  S
C961        C962   1.394       .  A
C961        C966   1.397       .  A
C961        H968   1.085       .  S
C962        C963   1.407       .  A
C963        C964   1.398       .  A
C963        N970   1.440       .  S
C964        C965   1.422       .  A
C964        H969   1.079       .  S
C965        C966   1.436       .  A
C966        N967   1.431       .  S
N967        H971   1.041       .  S
N967        H972   1.040       .  S
N970        H973   1.043       .  S
N970        H974   1.045       .  S
C975        C976   1.396       .  A
C975        C980   1.403       .  A
C975        H982   1.084       .  S
C976        C977   1.403       .  A
C977        C978   1.406       .  A
C977        N984   1.439       .  S
C978        C979   1.421       .  A
C978        H983   1.076       .  S
C979        C980   1.429       .  A
C980        N981   1.432       .  S
N981        H985   1.046       .  S
N981        H986   1.046       .  S
N984        H987   1.046       .  S
N984        H988   1.046       .  S
C989        C990   1.406       .  A
C989        C994   1.415       .  A
C989        H996   1.083       .  S
C990        C991   1.413       .  A
C991        C992   1.391       .  A
C991        N998   1.435       .  S
C992        C993   1.414       .  A
C992        H997   1.077       .  S
C993        C994   1.427       .  A
C994        N995   1.431       .  S
N995        H999   1.045       .  S
N995       H1000   1.046       .  S
N998       H1001   1.046       .  S
N998       H1002   1.046       .  S
C1003      C1004   1.397       .  A
C1003      C1008   1.401       .  A
C1003      H1010   1.084       .  S
C1004      C1005   1.393       .  A
C1005      C1006   1.395       .  A
C1005      N1012   1.426       .  S
C1006      C1007   1.418       .  A
C1006      H1011   1.075       .  S
C1007      C1008   1.441       .  A
C1008      N1009   1.434       .  S
N1009      H1013   1.042       .  S
N1009      H1014   1.040       .  S
N1012      H1015   1.044       .  S
N1012      H1016   1.046       .  S
C1017      C1018   1.397       .  A
C1017      C1022   1.402       .  A
C1017      H1024   1.084       .  S
C1018      C1019   1.400       .  A
C1019      C1020   1.401       .  A
C1019      N1026   1.435       .  S
C1020      C1021   1.416       .  A
C1020      H1025   1.078       .  S
C1021      C1022   1.426       .  A
C1022      N1023   1.433       .  S
N1023      H1027   1.046       .  S
N1023      H1028   1.045       .  S
N1026      H1029   1.046       .  S
N1026      H1030   1.045       .  S
C1031      C1032   1.403       .  A
C1031      C1036   1.411       .  A
C1031      H1038   1.083       .  S
C1032      C1033   1.417       .  A
C1033      C1034   1.402       .  A
C1033      N1040   1.439       .  S
C1034      C1035   1.416       .  A
C1034      H1039   1.079       .  S
C1035      C1036   1.425       .  A
C1036      N1037   1.428       .  S
N1037      H1041   1.045       .  S
N1037      H1042   1.046       .  S
N1040      H1043   1.046       .  S
N1040      H1044   1.045       .  S
C1045      C1046   1.397       .  A
C1045      C1050   1.402       .  A
C1045      H1052   1.084       .  S
C1046      C1047   1.415       .  A
C1047      C1048   1.407       .  A
C1047      N1054   1.433       .  S
C1048      C1049   1.414       .  A
C1048      H1053   1.079       .  S
C1049      C1050   1.428       .  A
C1050      N1051   1.432       .  S
N1051      H1055   1.046       .  S
N1051      H1056   1.046       .  S
N1054      H1057   1.045       .  S
N1054      H1058   1.046       .  S
C1059      C1060   1.419       .  A
C1059      C1064   1.400       .  A
C1059      H1066   1.082       .  S
C1060      C1061   1.441       .  A
C1061      C1062   1.408       .  A
C1061      N1068   1.437       .  S
C1062      C1063   1.399       .  A
C1062      H1067   1.084       .  S
C1063      C1064   1.402       .  A
C1064      N1065   1.439       .  S
N1065      H1069   1.046       .  S
N1065      H1070   1.046       .  S
N1068      H1071   1.037       .  S
N1068      H1072   1.045       .  S
C1073      C1074   1.417       .  A
C1073      C1078   1.395       .  A
C1073      H1080   1.084       .  S
C1074      C1075   1.434       .  A
C1075      C1076   1.400       .  A
C1075      N1082   1.432       .  S
C1076      C1077   1.392       .  A
C1076      H1081   1.085       .  S
C1077      C1078   1.399       .  A
C1078      N1079   1.433       .  S
N1079      H1083   1.046       .  S
N1079      H1084   1.046       .  S
N1082      H1085   1.046       .  S
N1082      H1086   1.046       .  S
C1087      C1088   1.420       .  A
C1087      C1092   1.402       .  A
C1087      H1094   1.083       .  S
C1088      C1089   1.432       .  A
C1089      C1090   1.398       .  A
C1089      N1096   1.432       .  S
C1090      C1091   1.393       .  A
C1090      H1095   1.080       .  S
C1091      C1092   1.403       .  A
C1092      N1093   1.438       .  S
N1093      H1097   1.045       .  S
N1093      H1098   1.046       .  S
N1096      H1099   1.046       .  S
N1096      H1100   1.046       .  S
C1101      C1102   1.397       .  A
C1101      C1106   1.403       .  A
C1101      H1108   1.084       .  S
C1102      C1103   1.409       .  A
C1103      C1104   1.405       .  A
C1103      N1110   1.430       .  S
C1104      C1105   1.411       .  A
C1104      H1109   1.080       .  S
C1105      C1106   1.427       .  A
C1106      N1107   1.430       .  S
N1107      H1111   1.046       .  S
N1107      H1112   1.046       .  S
N1110      H1113   1.046       .  S
N1110      H1114   1.046       .  S
C1115      C1116   1.419       .  A
C1115      C1120   1.406       .  A
C1115      H1122   1.083       .  S
C1116      C1117   1.434       .  A
C1117      C1118   1.402       .  A
C1117      N1124   1.432       .  S
C1118      C1119   1.391       .  A
C1118      H1123   1.081       .  S
C1119      C1120   1.404       .  A
C1120      N1121   1.438       .  S
N1121      H1125   1.046       .  S
N1121      H1126   1.046       .  S
N1124      H1127   1.046       .  S
N1124      H1128   1.046       .  S
C1129      C1130   1.395       .  A
C1129      C1134   1.402       .  A
C1129      H1136   1.084       .  S
C1130      C1131   1.403       .  A
C1131      C1132   1.404       .  A
C1131      N1138   1.436       .  S
C1132      C1133   1.417       .  A
C1132      H1137   1.078       .  S
C1133      C1134   1.427       .  A
C1134      N1135   1.432       .  S
N1135      H1139   1.046       .  S
N1135      H1140   1.045       .  S
N1138      H1141   1.046       .  S
N1138      H1142   1.045       .  S
C1143      C1144   1.416       .  A
C1143      C1148   1.407       .  A
C1143      H1150   1.083       .  S
C1144      C1145   1.430       .  A
C1145      C1146   1.395       .  A
C1145      N1152   1.433       .  S
C1146      C1147   1.400       .  A
C1146      H1151   1.084       .  S
C1147      C1148   1.418       .  A
C1148      N1149   1.430       .  S
N1149      H1153   1.045       .  S
N1149      H1154   1.042       .  S
N1152      H1155   1.046       .  S
N1152      H1156   1.046       .  S
C1157      C1158   1.417       .  A
C1157      C1162   1.410       .  A
C1157      H1164   1.083       .  S
C1158      C1159   1.431       .  A
C1159      C1160   1.392       .  A
C1159      N1166   1.434       .  S
C1160      C1161   1.399       .  A
C1160      H1165   1.084       .  S
C1161      C1162   1.409       .  A
C1162      N1163   1.432       .  S
N1163      H1167   1.045       .  S
N1163      H1168   1.045       .  S
N1166      H1169   1.046       .  S
N1166      H1170   1.046       .  S
C1171      C1172   1.411       .  A
C1171      C1176   1.407       .  A
C1171      H1178   1.079       .  S
C1172      C1173   1.428       .  A
C1173      C1174   1.402       .  A
C1173      N1180   1.432       .  S
C1174      C1175   1.397       .  A
C1174      H1179   1.084       .  S
C1175      C1176   1.408       .  A
C1176      N1177   1.430       .  S
N1177      H1181   1.046       .  S
N1177      H1182   1.045       .  S
N1180      H1183   1.046       .  S
N1180      H1184   1.046       .  S
C1185      C1186   1.418       .  A
C1185      C1190   1.400       .  A
C1185      H1192   1.084       .  S
C1186      C1187   1.434       .  A
C1187      C1188   1.401       .  A
C1187      N1194   1.432       .  S
C1188      C1189   1.394       .  A
C1188      H1193   1.085       .  S
C1189      C1190   1.412       .  A
C1190      N1191   1.440       .  S
N1191      H1195   1.046       .  S
N1191      H1196   1.043       .  S
N1194      H1197   1.046       .  S
N1194      H1198   1.046       .  S
C1199      C1200   1.422       .  A
C1199      C1204   1.407       .  A
C1199      H1206   1.076       .  S
C1200      C1201   1.427       .  A
C1201      C1202   1.400       .  A
C1201      N1208   1.433       .  S
C1202      C1203   1.397       .  A
C1202      H1207   1.084       .  S
C1203      C1204   1.405       .  A
C1204      N1205   1.439       .  S
N1205      H1209   1.046       .  S
N1205      H1210   1.045       .  S
N1208      H1211   1.046       .  S
N1208      H1212   1.046       .  S
C1213      C1214   1.398       .  A
C1213      C1218   1.408       .  A
C1213      H1220   1.084       .  S
C1214      C1215   1.406       .  A
C1215      C1216   1.395       .  A
C1215      N1222   1.433       .  S
C1216      C1217   1.417       .  A
C1216      H1221   1.082       .  S
C1217      C1218   1.429       .  A
C1218      N1219   1.432       .  S
N1219      H1223   1.046       .  S
N1219      H1224   1.046       .  S
N1222      H1225   1.046       .  S
N1222      H1226   1.045       .  S
C1227      C1228   1.404       .  A
C1227      C1232   1.414       .  A
C1227      H1234   1.084       .  S
C1228      C1229   1.410       .  A
C1229      C1230   1.399       .  A
C1229      N1236   1.434       .  S
C1230      C1231   1.418       .  A
C1230      H1235   1.081       .  S
C1231      C1232   1.427       .  A
C1232      N1233   1.429       .  S
N1233      H1237   1.046       .  S
N1233      H1238   1.046       .  S
N1236      H1239   1.046       .  S
N1236      H1240   1.046       .  S
C1241      C1242   1.403       .  A
C1241      C1246   1.409       .  A
C1241      H1248   1.084       .  S
C1242      C1243   1.407       .  A
C1243      C1244   1.396       .  A
C1243      N1250   1.433       .  S
C1244      C1245   1.419       .  A
C1244      H1249   1.084       .  S
C1245      C1246   1.426       .  A
C1246      N1247   1.432       .  S
N1247      H1251   1.045       .  S
N1247      H1252   1.046       .  S
N1250      H1253   1.046       .  S
N1250      H1254   1.044       .  S
C1255      C1256   1.397       .  A
C1255      C1260   1.405       .  A
C1255      H1262   1.085       .  S
C1256      C1257   1.409       .  A
C1257      C1258   1.397       .  A
C1257      N1264   1.440       .  S
C1258      C1259   1.420       .  A
C1258      H1263   1.081       .  S
C1259      C1260   1.430       .  A
C1260      N1261   1.431       .  S
N1261      H1265   1.046       .  S
N1261      H1266   1.046       .  S
N1264      H1267   1.043       .  S
N1264      H1268   1.046       .  S
C1269      C1270   1.416       .  A
C1269      C1274   1.393       .  A
C1269      H1276   1.077       .  S
C1270      C1271   1.425       .  A
C1271      C1272   1.411       .  A
C1271      N1278   1.431       .  S
C1272      C1273   1.403       .  A
C1272      H1277   1.084       .  S
C1273      C1274   1.409       .  A
C1274      N1275   1.433       .  S
N1275      H1279   1.043       .  S
N1275      H1280   1.046       .  S
N1278      H1281   1.045       .  S
N1278      H1282   1.045       .  S
C1283      C1284   1.395       .  A
C1283      C1288   1.397       .  A
C1283      H1290   1.085       .  S
C1284      C1285   1.410       .  A
C1285      C1286   1.413       .  A
C1285      N1292   1.438       .  S
C1286      C1287   1.417       .  A
C1286      H1291   1.079       .  S
C1287      C1288   1.426       .  A
C1288      N1289   1.433       .  S
N1289      H1293   1.046       .  S
N1289      H1294   1.045       .  S
N1292      H1295   1.045       .  S
N1292      H1296   1.046       .  S
C1297      C1298   1.418       .  A
C1297      C1302   1.392       .  A
C1297      H1304   1.080       .  S
C1298      C1299   1.442       .  A
C1299      C1300   1.411       .  A
C1299      N1306   1.437       .  S
C1300      C1301   1.401       .  A
C1300      H1305   1.084       .  S
C1301      C1302   1.407       .  A
C1302      N1303   1.434       .  S
N1303      H1307   1.046       .  S
N1303      H1308   1.046       .  S
N1306      H1309   1.032       .  S
N1306      H1310   1.046       .  S
C1311      C1312   1.394       .  A
C1311      C1316   1.402       .  A
C1311      H1318   1.078       .  S
C1312      C1313   1.401       .  A
C1313      C1314   1.403       .  A
C1313      N1320   1.438       .  S
C1314      C1315   1.419       .  A
C1314      H1319   1.082       .  S
C1315      C1316   1.428       .  A
C1316      N1317   1.432       .  S
N1317      H1321   1.045       .  S
N1317      H1322   1.046       .  S
N1320      H1323   1.046       .  S
N1320      H1324   1.046       .  S
C1325      C1326   1.402       .  A
C1325      C1330   1.394       .  A
C1325      H1332   1.084       .  S
C1326      C1327   1.413       .  A
C1327      C1328   1.415       .  A
C1327      N1334   1.437       .  S
C1328      C1329   1.417       .  A
C1328      H1333   1.083       .  S
C1329      C1330   1.430       .  A
C1330      N1331   1.434       .  S
N1331      H1335   1.046       .  S
N1331      H1336   1.046       .  S
N1334      H1337   1.046       .  S
N1334      H1338   1.046       .  S
C1339      C1340   1.397       .  A
C1339      C1344   1.398       .  A
C1339      H1346   1.084       .  S
C1340      C1341   1.405       .  A
C1341      C1342   1.405       .  A
C1341      N1348   1.439       .  S
C1342      C1343   1.419       .  A
C1342      H1347   1.077       .  S
C1343      C1344   1.427       .  A
C1344      N1345   1.434       .  S
N1345      H1349   1.046       .  S
N1345      H1350   1.045       .  S
N1348      H1351   1.046       .  S
N1348      H1352   1.046       .  S
C1353      C1354   1.417       .  A
C1353      C1358   1.401       .  A
C1353      H1360   1.083       .  S
C1354      C1355   1.431       .  A
C1355      C1356   1.400       .  A
C1355      N1362   1.432       .  S
C1356      C1357   1.394       .  A
C1356      H1361   1.085       .  S
C1357      C1358   1.411       .  A
C1358      N1359   1.439       .  S
N1359      H1363   1.046       .  S
N1359      H1364   1.043       .  S
N1362      H1365   1.046       .  S
N1362      H1366   1.046       .  S
C1367      C1368   1.416       .  A
C1367      C1372   1.395       .  A
C1367      H1374   1.081       .  S
C1368      C1369   1.424       .  A
C1369      C1370   1.412       .  A
C1369      N1376   1.428       .  S
C1370      C1371   1.405       .  A
C1370      H1375   1.084       .  S
C1371      C1372   1.410       .  A
C1372      N1373   1.433       .  S
N1373      H1377   1.046       .  S
N1373      H1378   1.046       .  S
N1376      H1379   1.046       .  S
N1376      H1380   1.046       .  S
C1381      C1382   1.419       .  A
C1381      C1386   1.413       .  A
C1381      H1388   1.078       .  S
C1382      C1383   1.425       .  A
C1383      C1384   1.401       .  A
C1383      N1390   1.433       .  S
C1384      C1385   1.398       .  A
C1384      H1389   1.084       .  S
C1385      C1386   1.410       .  A
C1386      N1387   1.438       .  S
N1387      H1391   1.046       .  S
N1387      H1392   1.045       .  S
N1390      H1393   1.046       .  S
N1390      H1394   1.046       .  S
C1395      C1396   1.395       .  A
C1395      C1400   1.398       .  A
C1395      H1402   1.084       .  S
C1396      C1397   1.404       .  A
C1397      C1398   1.406       .  A
C1397      N1404   1.434       .  S
C1398      C1399   1.415       .  A
C1398      H1403   1.077       .  S
C1399      C1400   1.427       .  A
C1400      N1401   1.431       .  S
N1401      H1405   1.045       .  S
N1401      H1406   1.046       .  S
N1404      H1407   1.045       .  S
N1404      H1408   1.045       .  S
O1409     Zr1421   2.435       .  S
O1409      C1411   1.286       .  A
O1410     Zr1447   2.444       .  S
O1410      C1411   1.291       .  A
C1411      C2016   1.475       .  S
O1412     Zr1424   2.422       .  S
O1412      C1414   1.284       .  A
O1413     Zr1448   2.438       .  S
O1413      C1414   1.289       .  A
C1414      C2044   1.471       .  S
O1415     Zr1424   2.426       .  S
O1415      C1417   1.285       .  A
O1416     Zr1447   2.440       .  S
O1416      C1417   1.289       .  A
C1417      C2100   1.476       .  S
O1418     Zr1421   2.453       .  S
O1418      C1420   1.291       .  A
O1419     Zr1448   2.433       .  S
O1419      C1420   1.288       .  A
C1420      C2089   1.485       .  S
Zr1421     O1422   2.435       .  S
Zr1421     O1423   2.436       .  S
Zr1421     O1427   2.380       .  S
Zr1421     O1428   2.366       .  S
Zr1421     O1451   2.372       .  S
Zr1421     O1453   2.379       .  S
O1422      H1465   0.990       .  S
O1423      H1464   0.990       .  S
O1423      H1468   0.990       .  S
Zr1424     O1425   2.436       .  S
Zr1424     O1426   2.435       .  S
Zr1424     O1428   2.368       .  S
Zr1424     O1427   2.372       .  S
Zr1424     O1452   2.366       .  S
Zr1424     O1454   2.371       .  S
O1425      H1466   0.990       .  S
O1425      H1469   0.990       .  S
O1426      H1459   0.990       .  S
O1427     Zr1447   2.389       .  S
O1428     Zr1448   2.390       .  S
O1428      H1455   0.966       .  S
O1429     Zr1441   2.432       .  S
O1429      C1431   1.286       .  A
O1430     Zr1448   2.444       .  S
O1430      C1431   1.290       .  A
C1431      C2005   1.493       .  S
O1432     Zr1444   2.428       .  S
O1432      C1434   1.288       .  A
O1433     Zr1447   2.452       .  S
O1433      C1434   1.291       .  A
C1434      C2030   1.502       .  S
O1435     Zr1444   2.437       .  S
O1435      C1437   1.287       .  A
O1436     Zr1448   2.443       .  S
O1436      C1437   1.290       .  A
C1437      C2061   1.480       .  S
O1438     Zr1441   2.446       .  S
O1438      C1440   1.290       .  A
O1439     Zr1447   2.439       .  S
O1439      C1440   1.289       .  A
C1440      C2075   1.496       .  S
Zr1441     O1442   2.435       .  S
Zr1441     O1443   2.435       .  S
Zr1441     O1449   2.374       .  S
Zr1441     O1450   2.363       .  S
Zr1441     O1453   2.365       .  S
Zr1441     O1451   2.373       .  S
O1442      H1462   0.990       .  S
O1442      H1467   0.990       .  S
O1443      H1463   0.990       .  S
Zr1444     O1445   2.435       .  S
Zr1444     O1446   2.435       .  S
Zr1444     O1450   2.364       .  S
Zr1444     O1449   2.363       .  S
Zr1444     O1454   2.368       .  S
Zr1444     O1452   2.368       .  S
O1445      H1461   0.990       .  S
O1446      H1460   0.990       .  S
O1446      H1470   0.990       .  S
Zr1447     O1450   2.382       .  S
Zr1447     O1452   2.390       .  S
Zr1447     O1453   2.397       .  S
Zr1448     O1449   2.390       .  S
Zr1448     O1451   2.394       .  S
Zr1448     O1454   2.386       .  S
O1449      H1457   0.966       .  S
O1452      H1456   0.966       .  S
O1453      H1458   0.965       .  S
O1471     Zr1483   2.457       .  S
O1471      C1473   1.292       .  A
O1472     Zr2213   2.438       .  S
O1472      C1473   1.289       .  A
C1473      C1988   1.487       .  S
O1474     Zr1486   2.435       .  S
O1474      C1476   1.287       .  A
O1475      C1476   1.289       .  A
C1476      C1932   1.493       .  S
O1477     Zr1486   2.438       .  S
O1477      C1479   1.287       .  A
O1478      C1479   1.286       .  A
C1479      C1960   1.470       .  S
O1480     Zr1483   2.458       .  S
O1480      C1482   1.291       .  A
O1481     Zr2214   2.426       .  S
O1481      C1482   1.287       .  A
C1482      C1946   1.485       .  S
Zr1483     O1484   2.434       .  S
Zr1483     O1485   2.436       .  S
Zr1483     O1489   2.373   1_655  S
Zr1483     O1490   2.368   1_655  S
Zr1483     O2217   2.370       .  S
Zr1483     O2219   2.370       .  S
O1484      H1527   0.990       .  S
O1485      H1526   0.990       .  S
O1485      H1530   0.990       .  S
Zr1486     O1487   2.437       .  S
Zr1486     O1488   2.434       .  S
Zr1486     O2218   2.373       .  S
Zr1486     O2220   2.372       .  S
O1487      H1528   0.990       .  S
O1487      H1531   0.990       .  S
O1488      H1521   0.990       .  S
O1489     Zr2213   2.382   1_455  S
O1490     Zr2214   2.389   1_455  S
O1490      H1517   0.967       .  S
O1491     Zr1503   2.442       .  S
O1491      C1493   1.288       .  A
O1492     Zr1510   2.425       .  S
O1492      C1493   1.287       .  A
C1493      C1918   1.474       .  S
O1494     Zr1506   2.435       .  S
O1494      C1496   1.287       .  A
O1495      C1496   1.286       .  A
C1496      C1893   1.471       .  S
O1497     Zr1506   2.437       .  S
O1497      C1499   1.287       .  A
O1498      C1499   1.285       .  A
C1499      C1907   1.472       .  S
O1500     Zr1503   2.451       .  S
O1500      C1502   1.290       .  A
O1501     Zr1509   2.431   1_554  S
O1501      C1502   1.287       .  A
C1502      C1977   1.483       .  S
Zr1503     O1504   2.436       .  S
Zr1503     O1505   2.433       .  S
Zr1503     O1511   2.376       .  S
Zr1503     O1512   2.368       .  S
Zr1503     O1515   2.367       .  S
Zr1503     O1513   2.374       .  S
O1504      H1524   0.990       .  S
O1504      H1529   0.990       .  S
O1505      H1525   0.990       .  S
Zr1506     O1507   2.435       .  S
Zr1506     O1508   2.436       .  S
Zr1506     O1516   2.373       .  S
Zr1506     O1514   2.375       .  S
O1507      H1523   0.990       .  S
O1508      H1522   0.990       .  S
O1508      H1532   0.990       .  S
Zr1509     O2176   2.426       .  S
Zr1509     O2193   2.387       .  S
Zr1509     O1512   2.384   1_556  S
Zr1509     O1515   2.392   1_556  S
Zr1510     O2185   2.419   1_554  S
Zr1510     O2194   2.384   1_554  S
Zr1510     O1511   2.392       .  S
Zr1510     O1513   2.389       .  S
O1511      H1519   0.966       .  S
O1513     Zr2187   2.368   1_554  S
O1514     Zr2190   2.373   1_554  S
O1514      H1518   0.967       .  S
O1515     Zr2187   2.372   1_554  S
O1515      H1520   0.966   1_554  S
O1516     Zr2190   2.371   1_554  S
C1533      C1862   1.574       .  S
C1533      C1876   1.567       .  S
C1533      C1991   1.578       .  S
C1533      C2072   1.577       .  S
O1534     Zr1546   2.477       .  S
O1534      C1536   1.295       .  A
O1535     Zr2276   2.416       .  S
O1535      C1536   1.284       .  A
C1536      C1879   1.488       .  S
O1537     Zr1549   2.434   1_565  S
O1537      C1539   1.288       .  A
O1538     Zr2277   2.433       .  S
O1538      C1539   1.286       .  A
C1539      C1851   1.498       .  S
O1540     Zr1549   2.433       .  S
O1540      C1542   1.286       .  A
O1541     Zr2276   2.425       .  S
O1541      C1542   1.286       .  A
C1542      C1823   1.469       .  S
O1543     Zr1546   2.469   1_565  S
O1543      C1545   1.294       .  A
O1544     Zr2277   2.407       .  S
O1544      C1545   1.283       .  A
C1545      C1806   1.480       .  S
Zr1546     O1547   2.434       .  S
Zr1546     O1548   2.438       .  S
Zr1546     O1552   2.378       .  S
Zr1546     O1553   2.382   1_545  S
Zr1546     O2280   2.371   1_545  S
Zr1546     O2282   2.368       .  S
O1547      H1590   0.990   1_545  S
O1548      H1589   0.990   1_545  S
O1548      H1593   0.990       .  S
Zr1549     O1550   2.435       .  S
Zr1549     O1551   2.435       .  S
Zr1549     O1553   2.374   1_545  S
Zr1549     O1552   2.374       .  S
Zr1549     O2281   2.366       .  S
Zr1549     O2283   2.365   1_545  S
O1550      H1591   0.990   1_545  S
O1550      H1594   0.990   1_545  S
O1551      H1584   0.990       .  S
O1552     Zr2276   2.389       .  S
O1553     Zr2277   2.393       .  S
O1553      H1580   0.966       .  S
O1554     Zr1566   2.440   1_565  S
O1554      C1556   1.287       .  A
O1555     Zr1573   2.430       .  S
O1555      C1556   1.287       .  A
C1556      C1834   1.472       .  S
O1557     Zr1569   2.416       .  S
O1557      C1559   1.283       .  A
O1558     Zr1572   2.422       .  S
O1558      C1559   1.286       .  A
C1559      C1781   1.461       .  S
O1560     Zr1569   2.436   1_565  S
O1560      C1562   1.286       .  A
O1561     Zr1573   2.425       .  S
O1561      C1562   1.286       .  A
C1562      C1795   1.473       .  S
O1563     Zr1566   2.452       .  S
O1563      C1565   1.290       .  A
O1564     Zr1572   2.435       .  S
O1564      C1565   1.288       .  A
C1565      C1767   1.485       .  S
Zr1566     O1567   2.435       .  S
Zr1566     O1568   2.434       .  S
Zr1566     O1574   2.375   1_545  S
Zr1566     O1575   2.370       .  S
Zr1566     O1578   2.369       .  S
Zr1566     O1576   2.375   1_545  S
O1567      H1587   0.990   1_545  S
O1567      H1592   0.990       .  S
O1568      H1588   0.990       .  S
Zr1569     O1570   2.436       .  S
Zr1569     O1571   2.436       .  S
Zr1569     O1575   2.378       .  S
Zr1569     O1574   2.367   1_545  S
Zr1569     O1579   2.359   1_544  S
Zr1569     O1577   2.369       .  S
O1570      H1586   0.990   1_545  S
O1571      H1585   0.990   1_545  S
O1571      H1595   0.990       .  S
Zr1572     O2239   2.420   1_554  S
Zr1572     O2245   2.432   1_554  S
Zr1572     O2256   2.385   1_554  S
Zr1572     O1575   2.384       .  S
Zr1572     O1577   2.386       .  S
Zr1572     O1578   2.385       .  S
Zr1573     O2242   2.435   1_554  S
Zr1573     O2248   2.410   1_554  S
Zr1573     O2257   2.390   1_554  S
Zr1573     O1574   2.382       .  S
Zr1573     O1576   2.388       .  S
Zr1573     O1579   2.375   1_554  S
O1574      H1582   0.966       .  S
O1576     Zr2250   2.375   1_564  S
O1577     Zr2253   2.369   1_554  S
O1577      H1581   0.966   1_554  S
O1578     Zr2250   2.370   1_554  S
O1578      H1583   0.966       .  S
O1579     Zr2253   2.366   1_565  S
C1596      C1753   1.564       .  S
C1596      C1848   1.570       .  S
C1596      C1935   1.574       .  S
C1596      C2086   1.574       .  S
O1597     Zr1609   2.428       .  S
O1597      C1599   1.285       .  A
O1598      C1599   1.291       .  A
C1599      C1736   1.499       .  S
O1600     Zr1612   2.420   1_565  S
O1600      C1602   1.283       .  A
O1601     Zr1636   2.442       .  S
O1601      C1602   1.288       .  A
C1602      C1694   1.495       .  S
O1603     Zr1612   2.432       .  S
O1603      C1605   1.288       .  A
O1604      C1605   1.289       .  A
C1605      C1865   1.500       .  S
O1606     Zr1609   2.432   1_565  S
O1606      C1608   1.286       .  A
O1607     Zr1636   2.428       .  S
O1607      C1608   1.286       .  A
C1608      C1722   1.471       .  S
Zr1609     O1610   2.434       .  S
Zr1609     O1611   2.433       .  S
Zr1609     O1615   2.367       .  S
Zr1609     O1616   2.367   1_545  S
Zr1609     O1639   2.371   1_545  S
O1610      H1653   0.990       .  S
O1611      H1652   0.990       .  S
O1611      H1656   0.990   1_545  S
Zr1612     O1613   2.436       .  S
Zr1612     O1614   2.434       .  S
Zr1612     O1616   2.369   1_545  S
Zr1612     O1615   2.359       .  S
Zr1612     O1642   2.367   1_545  S
O1613      H1654   0.990   1_545  S
O1613      H1657   0.990       .  S
O1614      H1647   0.990       .  S
O1616     Zr1636   2.384       .  S
O1616      H1643   0.967       .  S
O1617     Zr1629   2.432   1_565  S
O1617      C1619   1.286       .  A
O1618      C1619   1.288       .  A
C1619      C1708   1.474       .  S
O1620     Zr1632   2.444       .  S
O1620      C1622   1.289       .  A
O1621     Zr1635   2.438       .  S
O1621      C1622   1.290       .  A
C1622      C1666   1.477       .  S
O1623     Zr1632   2.463   1_565  S
O1623      C1625   1.293       .  A
O1624      C1625   1.285       .  A
C1625      C1750   1.482       .  S
O1626     Zr1629   2.444       .  S
O1626      C1628   1.288       .  A
O1627     Zr1635   2.429       .  S
O1627      C1628   1.287       .  A
C1628      C1680   1.476       .  S
Zr1629     O1630   2.437       .  S
Zr1629     O1631   2.434       .  S
Zr1629     O1637   2.369   1_545  S
Zr1629     O1638   2.364       .  S
Zr1629     O1641   2.373       .  S
O1630      H1650   0.990   1_545  S
O1630      H1655   0.990   1_545  S
O1631      H1651   0.990       .  S
Zr1632     O1633   2.434       .  S
Zr1632     O1634   2.434       .  S
Zr1632     O1638   2.377       .  S
Zr1632     O1637   2.365   1_545  S
Zr1632     O1640   2.376       .  S
O1633      H1649   0.990   1_545  S
O1634      H1648   0.990   1_545  S
O1634      H1658   0.990   1_545  S
Zr1635     O1638   2.391       .  S
Zr1635     O1640   2.392       .  S
Zr1635     O1641   2.392       .  S
Zr1636     O1639   2.388       .  S
Zr1636     O1642   2.392       .  S
O1637      H1645   0.966       .  S
O1640      H1644   0.966       .  S
O1641      H1646   0.966       .  S
C1659      C1725   1.569       .  S
C1659      C1837   1.569       .  S
C1659      C1921   1.566       .  S
C1659      C2058   1.572       .  S
C1660      C1683   1.580       .  S
C1660      C1778   1.557       .  S
C1660      C1890   1.571       .  S
C1660      C2103   1.563       .  S
C1661      C1739   1.576       .  S
C1661      C1764   1.582       .  S
C1661      C1974   1.568       .  S
C1661      C2033   1.568       .  S
C1662      C1711   1.581       .  S
C1662      C1792   1.571       .  S
C1662      C1904   1.575       .  S
C1662      C2047   1.563       .  S
C1663      C1669   1.582       .  S
C1663      C1820   1.564       .  S
C1663      C1963   1.572       .  S
C1663      C2019   1.566       .  S
C1664      C1697   1.571       .  S
C1664      C1809   1.571       .  S
C1664      C1949   1.573       .  S
C1664      C2002   1.586       .  S
C1665      C1666   1.397       .  A
C1665      C1670   1.402       .  A
C1665      H1672   1.085       .  S
C1666      C1667   1.409       .  A
C1667      C1668   1.402       .  A
C1667      N1674   1.440       .  S
C1668      C1669   1.423       .  A
C1668      H1673   1.079       .  S
C1669      C1670   1.436       .  A
C1670      N1671   1.432       .  S
N1671      H1675   1.042       .  S
N1671      H1676   1.040       .  S
N1674      H1677   1.043       .  S
N1674      H1678   1.045       .  S
C1679      C1680   1.397       .  A
C1679      C1684   1.405       .  A
C1679      H1686   1.084       .  S
C1680      C1681   1.404       .  A
C1681      C1682   1.406       .  A
C1681      N1688   1.439       .  S
C1682      C1683   1.421       .  A
C1682      H1687   1.077       .  S
C1683      C1684   1.429       .  A
C1684      N1685   1.432       .  S
N1685      H1689   1.046       .  S
N1685      H1690   1.046       .  S
N1688      H1691   1.046       .  S
N1688      H1692   1.046       .  S
C1693      C1694   1.406       .  A
C1693      C1698   1.415       .  A
C1693      H1700   1.083       .  S
C1694      C1695   1.412       .  A
C1695      C1696   1.388       .  A
C1695      N1702   1.435       .  S
C1696      C1697   1.413       .  A
C1696      H1701   1.077       .  S
C1697      C1698   1.427       .  A
C1698      N1699   1.431       .  S
N1699      H1703   1.045       .  S
N1699      H1704   1.046       .  S
N1702      H1705   1.046       .  S
N1702      H1706   1.046       .  S
C1707      C1708   1.396       .  A
C1707      C1712   1.398       .  A
C1707      H1714   1.085       .  S
C1708      C1709   1.400       .  A
C1709      C1710   1.405       .  A
C1709      N1716   1.440       .  S
C1710      C1711   1.426       .  A
C1710      H1715   1.075       .  S
C1711      C1712   1.438       .  A
C1712      N1713   1.434       .  S
N1713      H1717   1.042       .  S
N1713      H1718   1.040       .  S
N1716      H1719   1.046       .  S
N1716      H1720   1.046       .  S
C1721      C1722   1.396       .  A
C1721      C1726   1.405       .  A
C1721      H1728   1.085       .  S
C1722      C1723   1.400       .  A
C1723      C1724   1.400       .  A
C1723      N1730   1.433       .  S
C1724      C1725   1.419       .  A
C1724      H1729   1.082       .  S
C1725      C1726   1.430       .  A
C1726      N1727   1.431       .  S
N1727      H1731   1.046       .  S
N1727      H1732   1.046       .  S
N1730      H1733   1.046       .  S
N1730      H1734   1.046       .  S
C1735      C1736   1.405       .  A
C1735      C1740   1.412       .  A
C1735      H1742   1.083       .  S
C1736      C1737   1.416       .  A
C1737      C1738   1.401       .  A
C1737      N1744   1.439       .  S
C1738      C1739   1.415       .  A
C1738      H1743   1.080       .  S
C1739      C1740   1.424       .  A
C1740      N1741   1.429       .  S
N1741      H1745   1.045       .  S
N1741      H1746   1.046       .  S
N1744      H1747   1.046       .  S
N1744      H1748   1.046       .  S
C1749      C1750   1.396       .  A
C1749      C1754   1.400       .  A
C1749      H1756   1.084       .  S
C1750      C1751   1.414       .  A
C1751      C1752   1.407       .  A
C1751      N1758   1.433       .  S
C1752      C1753   1.415       .  A
C1752      H1757   1.079       .  S
C1753      C1754   1.427       .  A
C1754      N1755   1.432       .  S
N1755      H1759   1.046       .  S
N1755      H1760   1.046       .  S
N1758      H1761   1.045       .  S
N1758      H1762   1.046       .  S
C1763      C1764   1.420       .  A
C1763      C1768   1.403       .  A
C1763      H1770   1.082       .  S
C1764      C1765   1.440       .  A
C1765      C1766   1.409       .  A
C1765      N1772   1.436       .  S
C1766      C1767   1.400       .  A
C1766      H1771   1.084       .  S
C1767      C1768   1.405       .  A
C1768      N1769   1.439       .  S
N1769      H1773   1.046       .  S
N1769      H1774   1.046       .  S
N1772      H1775   1.038       .  S
N1772      H1776   1.045       .  S
C1777      C1778   1.417       .  A
C1777      C1782   1.399       .  A
C1777      H1784   1.083       .  S
C1778      C1779   1.432       .  A
C1779      C1780   1.399       .  A
C1779      N1786   1.432       .  S
C1780      C1781   1.392       .  A
C1780      H1785   1.085       .  S
C1781      C1782   1.403       .  A
C1782      N1783   1.438       .  S
N1783      H1787   1.045       .  S
N1783      H1788   1.046       .  S
N1786      H1789   1.046       .  S
N1786      H1790   1.046       .  S
C1791      C1792   1.419       .  A
C1791      C1796   1.404       .  A
C1791      H1798   1.083       .  S
C1792      C1793   1.437       .  A
C1793      C1794   1.402       .  A
C1793      N1800   1.431       .  S
C1794      C1795   1.393       .  A
C1794      H1799   1.085       .  S
C1795      C1796   1.404       .  A
C1796      N1797   1.438       .  S
N1797      H1801   1.046       .  S
N1797      H1802   1.046       .  S
N1800      H1803   1.046       .  S
N1800      H1804   1.046       .  S
C1805      C1806   1.396       .  A
C1805      C1810   1.403       .  A
C1805      H1812   1.084       .  S
C1806      C1807   1.408       .  A
C1807      C1808   1.405       .  A
C1807      N1814   1.430       .  S
C1808      C1809   1.412       .  A
C1808      H1813   1.080       .  S
C1809      C1810   1.428       .  A
C1810      N1811   1.431       .  S
N1811      H1815   1.045       .  S
N1811      H1816   1.046       .  S
N1814      H1817   1.046       .  S
N1814      H1818   1.046       .  S
C1819      C1820   1.419       .  A
C1819      C1824   1.402       .  A
C1819      H1826   1.083       .  S
C1820      C1821   1.434       .  A
C1821      C1822   1.403       .  A
C1821      N1828   1.431       .  S
C1822      C1823   1.392       .  A
C1822      H1827   1.082       .  S
C1823      C1824   1.402       .  A
C1824      N1825   1.438       .  S
N1825      H1829   1.046       .  S
N1825      H1830   1.046       .  S
N1828      H1831   1.046       .  S
N1828      H1832   1.046       .  S
C1833      C1834   1.395       .  A
C1833      C1838   1.405       .  A
C1833      H1840   1.085       .  S
C1834      C1835   1.403       .  A
C1835      C1836   1.404       .  A
C1835      N1842   1.438       .  S
C1836      C1837   1.418       .  A
C1836      H1841   1.083       .  S
C1837      C1838   1.432       .  A
C1838      N1839   1.432       .  S
N1839      H1843   1.046       .  S
N1839      H1844   1.046       .  S
N1842      H1845   1.046       .  S
N1842      H1846   1.046       .  S
C1847      C1848   1.416       .  A
C1847      C1852   1.407       .  A
C1847      H1854   1.083       .  S
C1848      C1849   1.429       .  A
C1849      C1850   1.396       .  A
C1849      N1856   1.433       .  S
C1850      C1851   1.401       .  A
C1850      H1855   1.084       .  S
C1851      C1852   1.418       .  A
C1852      N1853   1.431       .  S
N1853      H1857   1.045       .  S
N1853      H1858   1.043       .  S
N1856      H1859   1.046       .  S
N1856      H1860   1.046       .  S
C1861      C1862   1.418       .  A
C1861      C1866   1.414       .  A
C1861      H1868   1.082       .  S
C1862      C1863   1.431       .  A
C1863      C1864   1.398       .  A
C1863      N1870   1.433       .  S
C1864      C1865   1.402       .  A
C1864      H1869   1.084       .  S
C1865      C1866   1.411       .  A
C1866      N1867   1.431       .  S
N1867      H1871   1.046       .  S
N1867      H1872   1.045       .  S
N1870      H1873   1.046       .  S
N1870      H1874   1.046       .  S
C1875      C1876   1.413       .  A
C1875      C1880   1.413       .  A
C1875      H1882   1.079       .  S
C1876      C1877   1.426       .  A
C1877      C1878   1.403       .  A
C1877      N1884   1.432       .  S
C1878      C1879   1.398       .  A
C1878      H1883   1.084       .  S
C1879      C1880   1.413       .  A
C1880      N1881   1.437       .  S
N1881      H1885   1.046       .  S
N1881      H1886   1.045       .  S
N1884      H1887   1.045       .  S
N1884      H1888   1.046       .  S
C1889      C1890   1.417       .  A
C1889      C1894   1.399       .  A
C1889      H1896   1.084       .  S
C1890      C1891   1.434       .  A
C1891      C1892   1.403       .  A
C1891      N1898   1.432       .  S
C1892      C1893   1.395       .  A
C1892      H1897   1.085       .  S
C1893      C1894   1.411       .  A
C1894      N1895   1.440       .  S
N1895      H1899   1.046       .  S
N1895      H1900   1.043       .  S
N1898      H1901   1.046       .  S
N1898      H1902   1.046       .  S
C1903      C1904   1.421       .  A
C1903      C1908   1.406       .  A
C1903      H1910   1.076       .  S
C1904      C1905   1.429       .  A
C1905      C1906   1.399       .  A
C1905      N1912   1.433       .  S
C1906      C1907   1.396       .  A
C1906      H1911   1.084       .  S
C1907      C1908   1.406       .  A
C1908      N1909   1.439       .  S
N1909      H1913   1.046       .  S
N1909      H1914   1.045       .  S
N1912      H1915   1.046       .  S
N1912      H1916   1.046       .  S
C1917      C1918   1.400       .  A
C1917      C1922   1.403       .  A
C1917      H1924   1.084       .  S
C1918      C1919   1.413       .  A
C1919      C1920   1.400       .  A
C1919      N1926   1.441       .  S
C1920      C1921   1.419       .  A
C1920      H1925   1.077       .  S
C1921      C1922   1.423       .  A
C1922      N1923   1.433       .  S
N1923      H1927   1.046       .  S
N1923      H1928   1.045       .  S
N1926      H1929   1.042       .  S
N1926      H1930   1.046       .  S
C1931      C1932   1.404       .  A
C1931      C1936   1.412       .  A
C1931      H1938   1.084       .  S
C1932      C1933   1.409       .  A
C1933      C1934   1.397       .  A
C1933      N1940   1.434       .  S
C1934      C1935   1.417       .  A
C1934      H1939   1.081       .  S
C1935      C1936   1.425       .  A
C1936      N1937   1.429       .  S
N1937      H1941   1.046       .  S
N1937      H1942   1.046       .  S
N1940      H1943   1.046       .  S
N1940      H1944   1.046       .  S
C1945      C1946   1.403       .  A
C1945      C1950   1.411       .  A
C1945      H1952   1.084       .  S
C1946      C1947   1.409       .  A
C1947      C1948   1.397       .  A
C1947      N1954   1.433       .  S
C1948      C1949   1.418       .  A
C1948      H1953   1.084       .  S
C1949      C1950   1.428       .  A
C1950      N1951   1.432       .  S
N1951      H1955   1.045       .  S
N1951      H1956   1.046       .  S
N1954      H1957   1.046       .  S
N1954      H1958   1.044       .  S
C1959      C1960   1.397       .  A
C1959      C1964   1.405       .  A
C1959      H1966   1.085       .  S
C1960      C1961   1.409       .  A
C1961      C1962   1.397       .  A
C1961      N1968   1.439       .  S
C1962      C1963   1.418       .  A
C1962      H1967   1.083       .  S
C1963      C1964   1.431       .  A
C1964      N1965   1.432       .  S
N1965      H1969   1.046       .  S
N1965      H1970   1.046       .  S
N1968      H1971   1.043       .  S
N1968      H1972   1.046       .  S
C1973      C1974   1.415       .  A
C1973      C1978   1.394       .  A
C1973      H1980   1.077       .  S
C1974      C1975   1.427       .  A
C1975      C1976   1.414       .  A
C1975      N1982   1.432       .  S
C1976      C1977   1.404       .  A
C1976      H1981   1.084       .  S
C1977      C1978   1.409       .  A
C1978      N1979   1.433       .  S
N1979      H1983   1.043       .  S
N1979      H1984   1.046       .  S
N1982      H1985   1.045       .  S
N1982      H1986   1.045       .  S
C1987      C1988   1.397       .  A
C1987      C1992   1.402       .  A
C1987      H1994   1.084       .  S
C1988      C1989   1.410       .  A
C1989      C1990   1.415       .  A
C1989      N1996   1.438       .  S
C1990      C1991   1.418       .  A
C1990      H1995   1.079       .  S
C1991      C1992   1.427       .  A
C1992      N1993   1.433       .  S
N1993      H1997   1.046       .  S
N1993      H1998   1.045       .  S
N1996      H1999   1.046       .  S
N1996      H2000   1.046       .  S
C2001      C2002   1.418       .  A
C2001      C2006   1.393       .  A
C2001      H2008   1.080       .  S
C2002      C2003   1.444       .  A
C2003      C2004   1.411       .  A
C2003      N2010   1.437       .  S
C2004      C2005   1.400       .  A
C2004      H2009   1.084       .  S
C2005      C2006   1.407       .  A
C2006      N2007   1.433       .  S
N2007      H2011   1.046       .  S
N2007      H2012   1.046       .  S
N2010      H2013   1.031       .  S
N2010      H2014   1.046       .  S
C2015      C2016   1.394       .  A
C2015      C2020   1.404       .  A
C2015      H2022   1.077       .  S
C2016      C2017   1.404       .  A
C2017      C2018   1.405       .  A
C2017      N2024   1.438       .  S
C2018      C2019   1.421       .  A
C2018      H2023   1.082       .  S
C2019      C2020   1.427       .  A
C2020      N2021   1.431       .  S
N2021      H2025   1.046       .  S
N2021      H2026   1.046       .  S
N2024      H2027   1.045       .  S
N2024      H2028   1.045       .  S
C2029      C2030   1.403       .  A
C2029      C2034   1.396       .  A
C2029      H2036   1.084       .  S
C2030      C2031   1.414       .  A
C2031      C2032   1.417       .  A
C2031      N2038   1.437       .  S
C2032      C2033   1.418       .  A
C2032      H2037   1.083       .  S
C2033      C2034   1.429       .  A
C2034      N2035   1.434       .  S
N2035      H2039   1.046       .  S
N2035      H2040   1.046       .  S
N2038      H2041   1.046       .  S
N2038      H2042   1.046       .  S
C2043      C2044   1.396       .  A
C2043      C2048   1.397       .  A
C2043      H2050   1.084       .  S
C2044      C2045   1.406       .  A
C2045      C2046   1.408       .  A
C2045      N2052   1.439       .  S
C2046      C2047   1.419       .  A
C2046      H2051   1.078       .  S
C2047      C2048   1.427       .  A
C2048      N2049   1.434       .  S
N2049      H2053   1.046       .  S
N2049      H2054   1.045       .  S
N2052      H2055   1.046       .  S
N2052      H2056   1.046       .  S
C2057      C2058   1.420       .  A
C2057      C2062   1.402       .  A
C2057      H2064   1.078       .  S
C2058      C2059   1.428       .  A
C2059      C2060   1.404       .  A
C2059      N2066   1.433       .  S
C2060      C2061   1.399       .  A
C2060      H2065   1.084       .  S
C2061      C2062   1.408       .  A
C2062      N2063   1.433       .  S
N2063      H2067   1.045       .  S
N2063      H2068   1.046       .  S
N2066      H2069   1.046       .  S
N2066      H2070   1.045       .  S
C2071      C2072   1.417       .  A
C2071      C2076   1.399       .  A
C2071      H2078   1.081       .  S
C2072      C2073   1.426       .  A
C2073      C2074   1.414       .  A
C2073      N2080   1.429       .  S
C2074      C2075   1.405       .  A
C2074      H2079   1.084       .  S
C2075      C2076   1.409       .  A
C2076      N2077   1.433       .  S
N2077      H2081   1.046       .  S
N2077      H2082   1.046       .  S
N2080      H2083   1.046       .  S
N2080      H2084   1.046       .  S
C2085      C2086   1.419       .  A
C2085      C2090   1.414       .  A
C2085      H2092   1.079       .  S
C2086      C2087   1.425       .  A
C2087      C2088   1.400       .  A
C2087      N2094   1.433       .  S
C2088      C2089   1.398       .  A
C2088      H2093   1.084       .  S
C2089      C2090   1.410       .  A
C2090      N2091   1.438       .  S
N2091      H2095   1.046       .  S
N2091      H2096   1.045       .  S
N2094      H2097   1.046       .  S
N2094      H2098   1.046       .  S
C2099      C2100   1.398       .  A
C2099      C2104   1.403       .  A
C2099      H2106   1.084       .  S
C2100      C2101   1.404       .  A
C2101      C2102   1.403       .  A
C2101      N2108   1.434       .  S
C2102      C2103   1.413       .  A
C2102      H2107   1.077       .  S
C2103      C2104   1.428       .  A
C2104      N2105   1.432       .  S
N2105      H2109   1.045       .  S
N2105      H2110   1.046       .  S
N2108      H2111   1.045       .  S
N2108      H2112   1.046       .  S
O2113     Zr2125   2.437       .  S
O2113      C2115   1.287       .  A
O2114     Zr2151   2.437       .  S
O2114      C2115   1.289       .  A
C2115      C2720   1.472       .  S
O2116     Zr2128   2.419       .  S
O2116      C2118   1.284       .  A
O2117     Zr2152   2.435       .  S
O2117      C2118   1.289       .  A
C2118      C2748   1.470       .  S
O2119     Zr2128   2.430       .  S
O2119      C2121   1.285       .  A
O2120     Zr2151   2.434       .  S
O2120      C2121   1.288       .  A
C2121      C2804   1.475       .  S
O2122     Zr2125   2.455       .  S
O2122      C2124   1.291       .  A
O2123     Zr2152   2.438       .  S
O2123      C2124   1.288       .  A
C2124      C2793   1.484       .  S
Zr2125     O2126   2.435       .  S
Zr2125     O2127   2.436       .  S
Zr2125     O2131   2.379       .  S
Zr2125     O2132   2.368       .  S
Zr2125     O2155   2.369       .  S
Zr2125     O2157   2.377       .  S
O2126      H2169   0.990       .  S
O2127      H2168   0.990       .  S
O2127      H2172   0.990       .  S
Zr2128     O2129   2.436       .  S
Zr2128     O2130   2.435       .  S
Zr2128     O2132   2.367       .  S
Zr2128     O2131   2.363       .  S
Zr2128     O2156   2.370       .  S
Zr2128     O2158   2.371       .  S
O2129      H2170   0.990       .  S
O2129      H2173   0.990       .  S
O2130      H2163   0.990       .  S
O2131     Zr2151   2.384       .  S
O2132     Zr2152   2.387       .  S
O2132      H2159   0.966       .  S
O2133     Zr2145   2.432       .  S
O2133      C2135   1.287       .  A
O2134     Zr2152   2.443       .  S
O2134      C2135   1.290       .  A
C2135      C2709   1.495       .  S
O2136     Zr2148   2.425       .  S
O2136      C2138   1.287       .  A
O2137     Zr2151   2.450       .  S
O2137      C2138   1.290       .  A
C2138      C2734   1.499       .  S
O2139     Zr2148   2.437       .  S
O2139      C2141   1.287       .  A
O2140     Zr2152   2.427       .  S
O2140      C2141   1.287       .  A
C2141      C2765   1.472       .  S
O2142     Zr2145   2.441       .  S
O2142      C2144   1.289       .  A
O2143     Zr2151   2.433       .  S
O2143      C2144   1.288       .  A
C2144      C2779   1.494       .  S
Zr2145     O2146   2.436       .  S
Zr2145     O2147   2.436       .  S
Zr2145     O2153   2.372       .  S
Zr2145     O2154   2.362       .  S
Zr2145     O2157   2.366       .  S
Zr2145     O2155   2.373       .  S
O2146      H2166   0.990       .  S
O2146      H2171   0.990       .  S
O2147      H2167   0.990       .  S
Zr2148     O2149   2.434       .  S
Zr2148     O2150   2.435       .  S
Zr2148     O2154   2.366       .  S
Zr2148     O2153   2.363       .  S
Zr2148     O2158   2.364       .  S
Zr2148     O2156   2.372       .  S
O2149      H2165   0.990       .  S
O2150      H2164   0.990       .  S
O2150      H2174   0.990       .  S
Zr2151     O2154   2.383       .  S
Zr2151     O2156   2.394       .  S
Zr2151     O2157   2.393       .  S
Zr2152     O2153   2.387       .  S
Zr2152     O2155   2.387       .  S
Zr2152     O2158   2.389       .  S
O2153      H2161   0.966       .  S
O2156      H2160   0.966       .  S
O2157      H2162   0.966       .  S
O2175     Zr2187   2.452       .  S
O2175      C2177   1.291       .  A
O2176      C2177   1.286       .  A
C2177      C2692   1.479       .  S
O2178     Zr2190   2.438       .  S
O2178      C2180   1.287       .  A
O2179      C2180   1.288       .  A
C2180      C2636   1.496       .  S
O2181     Zr2190   2.436       .  S
O2181      C2183   1.287       .  A
O2182      C2183   1.287       .  A
C2183      C2664   1.472       .  S
O2184     Zr2187   2.458       .  S
O2184      C2186   1.291       .  A
O2185      C2186   1.285       .  A
C2186      C2650   1.481       .  S
Zr2187     O2188   2.435       .  S
Zr2187     O2189   2.437       .  S
Zr2187     O2193   2.376       .  S
Zr2187     O2194   2.374       .  S
O2188      H2231   0.990       .  S
O2189      H2230   0.990       .  S
O2189      H2234   0.990       .  S
Zr2190     O2191   2.437       .  S
Zr2190     O2192   2.434       .  S
O2191      H2232   0.990       .  S
O2191      H2235   0.990       .  S
O2192      H2225   0.990       .  S
O2194      H2221   0.966       .  S
O2195     Zr2207   2.432       .  S
O2195      C2197   1.286       .  A
O2196     Zr2214   2.442       .  S
O2196      C2197   1.289       .  A
C2197      C2622   1.474       .  S
O2198     Zr2210   2.435       .  S
O2198      C2200   1.286       .  A
O2199      C2200   1.288       .  A
C2200      C2597   1.477       .  S
O2201     Zr2210   2.429       .  S
O2201      C2203   1.286       .  A
O2202      C2203   1.286       .  A
C2203      C2611   1.474       .  S
O2204     Zr2207   2.447       .  S
O2204      C2206   1.289       .  A
O2205     Zr2213   2.423       .  S
O2205      C2206   1.286       .  A
C2206      C2681   1.480       .  S
Zr2207     O2208   2.436       .  S
Zr2207     O2209   2.433       .  S
Zr2207     O2215   2.375       .  S
Zr2207     O2216   2.367       .  S
Zr2207     O2219   2.364       .  S
Zr2207     O2217   2.370       .  S
O2208      H2228   0.990       .  S
O2208      H2233   0.990       .  S
O2209      H2229   0.990       .  S
Zr2210     O2211   2.434       .  S
Zr2210     O2212   2.436       .  S
Zr2210     O2220   2.370       .  S
Zr2210     O2218   2.372       .  S
O2211      H2227   0.990       .  S
O2212      H2226   0.990       .  S
O2212      H2236   0.990       .  S
Zr2213     O2216   2.387       .  S
Zr2213     O2219   2.387       .  S
Zr2214     O2215   2.391       .  S
Zr2214     O2217   2.381       .  S
O2215      H2223   0.966       .  S
O2218      H2222   0.966       .  S
O2219      H2224   0.966       .  S
C2237      C2566   1.570       .  S
C2237      C2580   1.565       .  S
C2237      C2695   1.573       .  S
C2237      C2776   1.573       .  S
O2238     Zr2250   2.472       .  S
O2238      C2240   1.294       .  A
O2239      C2240   1.285       .  A
C2240      C2583   1.487       .  S
O2241     Zr2253   2.428   1_565  S
O2241      C2243   1.287       .  A
O2242      C2243   1.286       .  A
C2243      C2555   1.497       .  S
O2244     Zr2253   2.429       .  S
O2244      C2246   1.285       .  A
O2245      C2246   1.287       .  A
C2246      C2527   1.469       .  S
O2247     Zr2250   2.465   1_565  S
O2247      C2249   1.293       .  A
O2248      C2249   1.283       .  A
C2249      C2510   1.479       .  S
Zr2250     O2251   2.436       .  S
Zr2250     O2252   2.436       .  S
Zr2250     O2256   2.375       .  S
Zr2250     O2257   2.381   1_545  S
O2251      H2294   0.990   1_545  S
O2252      H2293   0.990       .  S
O2252      H2297   0.990       .  S
Zr2253     O2254   2.434       .  S
Zr2253     O2255   2.435       .  S
Zr2253     O2257   2.366   1_545  S
Zr2253     O2256   2.368       .  S
O2254      H2295   0.990   1_545  S
O2254      H2298   0.990       .  S
O2255      H2288   0.990       .  S
O2257      H2284   0.966       .  S
O2258     Zr2270   2.438   1_565  S
O2258      C2260   1.287       .  A
O2259     Zr2277   2.425       .  S
O2259      C2260   1.286       .  A
C2260      C2538   1.470       .  S
O2261     Zr2273   2.421       .  S
O2261      C2263   1.284       .  A
O2262     Zr2276   2.426       .  S
O2262      C2263   1.286       .  A
C2263      C2485   1.465       .  S
O2264     Zr2273   2.439   1_565  S
O2264      C2266   1.286       .  A
O2265     Zr2277   2.418       .  S
O2265      C2266   1.285       .  A
C2266      C2499   1.474       .  S
O2267     Zr2270   2.448       .  S
O2267      C2269   1.290       .  A
O2268     Zr2276   2.426       .  S
O2268      C2269   1.286       .  A
C2269      C2471   1.479       .  S
Zr2270     O2271   2.435       .  S
Zr2270     O2272   2.434       .  S
Zr2270     O2278   2.380   1_545  S
Zr2270     O2279   2.374       .  S
Zr2270     O2282   2.367       .  S
Zr2270     O2280   2.369   1_545  S
O2271      H2291   0.990       .  S
O2271      H2296   0.990   1_545  S
O2272      H2292   0.990       .  S
Zr2273     O2274   2.436       .  S
Zr2273     O2275   2.436       .  S
Zr2273     O2279   2.378       .  S
Zr2273     O2278   2.369   1_545  S
Zr2273     O2283   2.365   1_545  S
Zr2273     O2281   2.368       .  S
O2274      H2290   0.990   1_545  S
O2275      H2289   0.990   1_545  S
O2275      H2299   0.990       .  S
Zr2276     O2279   2.383       .  S
Zr2276     O2281   2.381       .  S
Zr2276     O2282   2.387       .  S
Zr2277     O2278   2.386       .  S
Zr2277     O2280   2.386       .  S
Zr2277     O2283   2.375       .  S
O2278      H2286   0.966       .  S
O2281      H2285   0.966       .  S
O2282      H2287   0.965       .  S
C2300      C2457   1.560       .  S
C2300      C2552   1.570       .  S
C2300      C2639   1.575       .  S
C2300      C2790   1.576       .  S
O2301     Zr2313   2.429       .  S
O2301      C2303   1.286       .  A
O2302      C2303   1.290       .  A
C2303      C2440   1.497       .  S
O2304     Zr2316   2.417   1_565  S
O2304      C2306   1.283       .  A
O2305     Zr2340   2.444       .  S
O2305      C2306   1.289       .  A
C2306      C2398   1.495       .  S
O2307     Zr2316   2.423       .  S
O2307      C2309   1.286       .  A
O2308      C2309   1.288       .  A
C2309      C2569   1.493       .  S
O2310     Zr2313   2.422   1_565  S
O2310      C2312   1.283       .  A
O2311     Zr2340   2.447       .  S
O2311      C2312   1.291       .  A
C2312      C2426   1.472       .  S
Zr2313     O2314   2.433       .  S
Zr2313     O2315   2.433       .  S
Zr2313     O2319   2.364       .  S
Zr2313     O2320   2.370   1_545  S
Zr2313     O2343   2.376   1_545  S
O2314      H2357   0.990       .  S
O2315      H2356   0.990       .  S
O2315      H2360   0.990   1_545  S
Zr2316     O2317   2.436       .  S
Zr2316     O2318   2.436       .  S
Zr2316     O2320   2.366   1_545  S
Zr2316     O2319   2.363       .  S
Zr2316     O2346   2.363   1_545  S
O2317      H2358   0.990       .  S
O2317      H2361   0.990       .  S
O2318      H2351   0.990       .  S
O2320     Zr2340   2.385       .  S
O2320      H2347   0.966       .  S
O2321     Zr2333   2.438   1_565  S
O2321      C2323   1.287       .  A
O2322      C2323   1.289       .  A
C2323      C2412   1.480       .  S
O2324     Zr2336   2.442       .  S
O2324      C2326   1.288       .  A
O2325     Zr2339   2.435       .  S
O2325      C2326   1.289       .  A
C2326      C2370   1.474       .  S
O2327     Zr2336   2.467   1_565  S
O2327      C2329   1.294       .  A
O2328      C2329   1.283       .  A
C2329      C2454   1.479       .  S
O2330     Zr2333   2.442       .  S
O2330      C2332   1.288       .  A
O2331     Zr2339   2.418       .  S
O2331      C2332   1.285       .  A
C2332      C2384   1.471       .  S
Zr2333     O2334   2.437       .  S
Zr2333     O2335   2.435       .  S
Zr2333     O2341   2.373   1_545  S
Zr2333     O2342   2.370       .  S
Zr2333     O2345   2.372       .  S
O2334      H2354   0.990   1_545  S
O2334      H2359   0.990   1_545  S
O2335      H2355   0.990       .  S
Zr2336     O2337   2.434       .  S
Zr2336     O2338   2.436       .  S
Zr2336     O2342   2.381       .  S
Zr2336     O2341   2.365   1_545  S
Zr2336     O2344   2.373       .  S
O2337      H2353   0.990       .  S
O2338      H2352   0.990       .  S
O2338      H2362   0.990       .  S
Zr2339     O2342   2.396       .  S
Zr2339     O2344   2.390       .  S
Zr2339     O2345   2.387       .  S
Zr2340     O2343   2.389       .  S
Zr2340     O2346   2.388       .  S
O2341      H2349   0.965       .  S
O2344      H2348   0.966       .  S
O2345      H2350   0.966       .  S
C2363      C2429   1.563       .  S
C2363      C2541   1.563       .  S
C2363      C2625   1.569       .  S
C2363      C2762   1.567       .  S
C2364      C2387   1.577       .  S
C2364      C2482   1.562       .  S
C2364      C2594   1.577       .  S
C2364      C2807   1.562       .  S
C2365      C2443   1.574       .  S
C2365      C2468   1.580       .  S
C2365      C2678   1.565       .  S
C2365      C2737   1.567       .  S
C2366      C2415   1.579       .  S
C2366      C2496   1.572       .  S
C2366      C2608   1.580       .  S
C2366      C2751   1.563       .  S
C2367      C2373   1.579       .  S
C2367      C2524   1.563       .  S
C2367      C2667   1.574       .  S
C2367      C2723   1.563       .  S
C2368      C2401   1.571       .  S
C2368      C2513   1.573       .  S
C2368      C2653   1.571       .  S
C2368      C2706   1.587       .  S
C2369      C2370   1.396       .  A
C2369      C2374   1.400       .  A
C2369      H2376   1.085       .  S
C2370      C2371   1.409       .  A
C2371      C2372   1.402       .  A
C2371      N2378   1.440       .  S
C2372      C2373   1.422       .  A
C2372      H2377   1.079       .  S
C2373      C2374   1.436       .  A
C2374      N2375   1.431       .  S
N2375      H2379   1.041       .  S
N2375      H2380   1.040       .  S
N2378      H2381   1.043       .  S
N2378      H2382   1.045       .  S
C2383      C2384   1.394       .  A
C2383      C2388   1.401       .  A
C2383      H2390   1.084       .  S
C2384      C2385   1.404       .  A
C2385      C2386   1.406       .  A
C2385      N2392   1.439       .  S
C2386      C2387   1.422       .  A
C2386      H2391   1.077       .  S
C2387      C2388   1.429       .  A
C2388      N2389   1.432       .  S
N2389      H2393   1.046       .  S
N2389      H2394   1.046       .  S
N2392      H2395   1.046       .  S
N2392      H2396   1.046       .  S
C2397      C2398   1.406       .  A
C2397      C2402   1.413       .  A
C2397      H2404   1.083       .  S
C2398      C2399   1.413       .  A
C2399      C2400   1.389       .  A
C2399      N2406   1.435       .  S
C2400      C2401   1.414       .  A
C2400      H2405   1.076       .  S
C2401      C2402   1.426       .  A
C2402      N2403   1.431       .  S
N2403      H2407   1.045       .  S
N2403      H2408   1.046       .  S
N2406      H2409   1.046       .  S
N2406      H2410   1.046       .  S
C2411      C2412   1.399       .  A
C2411      C2416   1.401       .  A
C2411      H2418   1.084       .  S
C2412      C2413   1.398       .  A
C2413      C2414   1.398       .  A
C2413      N2420   1.429       .  S
C2414      C2415   1.419       .  A
C2414      H2419   1.073       .  S
C2415      C2416   1.440       .  A
C2416      N2417   1.434       .  S
N2417      H2421   1.042       .  S
N2417      H2422   1.041       .  S
N2420      H2423   1.042       .  S
N2420      H2424   1.046       .  S
C2425      C2426   1.398       .  A
C2425      C2430   1.405       .  A
C2425      H2432   1.084       .  S
C2426      C2427   1.400       .  A
C2427      C2428   1.401       .  A
C2427      N2434   1.433       .  S
C2428      C2429   1.413       .  A
C2428      H2433   1.078       .  S
C2429      C2430   1.428       .  A
C2430      N2431   1.433       .  S
N2431      H2435   1.046       .  S
N2431      H2436   1.045       .  S
N2434      H2437   1.046       .  S
N2434      H2438   1.045       .  S
C2439      C2440   1.403       .  A
C2439      C2444   1.411       .  A
C2439      H2446   1.084       .  S
C2440      C2441   1.415       .  A
C2441      C2442   1.403       .  A
C2441      N2448   1.439       .  S
C2442      C2443   1.416       .  A
C2442      H2447   1.080       .  S
C2443      C2444   1.425       .  A
C2444      N2445   1.429       .  S
N2445      H2449   1.045       .  S
N2445      H2450   1.046       .  S
N2448      H2451   1.046       .  S
N2448      H2452   1.046       .  S
C2453      C2454   1.396       .  A
C2453      C2458   1.400       .  A
C2453      H2460   1.084       .  S
C2454      C2455   1.414       .  A
C2455      C2456   1.404       .  A
C2455      N2462   1.433       .  S
C2456      C2457   1.414       .  A
C2456      H2461   1.079       .  S
C2457      C2458   1.427       .  A
C2458      N2459   1.433       .  S
N2459      H2463   1.046       .  S
N2459      H2464   1.045       .  S
N2462      H2465   1.045       .  S
N2462      H2466   1.046       .  S
C2467      C2468   1.420       .  A
C2467      C2472   1.401       .  A
C2467      H2474   1.079       .  S
C2468      C2469   1.441       .  A
C2469      C2470   1.407       .  A
C2469      N2476   1.437       .  S
C2470      C2471   1.398       .  A
C2470      H2475   1.084       .  S
C2471      C2472   1.402       .  A
C2472      N2473   1.439       .  S
N2473      H2477   1.046       .  S
N2473      H2478   1.046       .  S
N2476      H2479   1.036       .  S
N2476      H2480   1.045       .  S
C2481      C2482   1.417       .  A
C2481      C2486   1.398       .  A
C2481      H2488   1.084       .  S
C2482      C2483   1.436       .  A
C2483      C2484   1.401       .  A
C2483      N2490   1.432       .  S
C2484      C2485   1.392       .  A
C2484      H2489   1.085       .  S
C2485      C2486   1.401       .  A
C2486      N2487   1.433       .  S
N2487      H2491   1.046       .  S
N2487      H2492   1.046       .  S
N2490      H2493   1.046       .  S
N2490      H2494   1.046       .  S
C2495      C2496   1.422       .  A
C2495      C2500   1.406       .  A
C2495      H2502   1.084       .  S
C2496      C2497   1.435       .  A
C2497      C2498   1.399       .  A
C2497      N2504   1.430       .  S
C2498      C2499   1.391       .  A
C2498      H2503   1.082       .  S
C2499      C2500   1.404       .  A
C2500      N2501   1.438       .  S
N2501      H2505   1.046       .  S
N2501      H2506   1.046       .  S
N2504      H2507   1.046       .  S
N2504      H2508   1.046       .  S
C2509      C2510   1.394       .  A
C2509      C2514   1.400       .  A
C2509      H2516   1.084       .  S
C2510      C2511   1.411       .  A
C2511      C2512   1.410       .  A
C2511      N2518   1.436       .  S
C2512      C2513   1.413       .  A
C2512      H2517   1.078       .  S
C2513      C2514   1.428       .  A
C2514      N2515   1.431       .  S
N2515      H2519   1.046       .  S
N2515      H2520   1.046       .  S
N2518      H2521   1.043       .  S
N2518      H2522   1.046       .  S
C2523      C2524   1.418       .  A
C2523      C2528   1.402       .  A
C2523      H2530   1.083       .  S
C2524      C2525   1.434       .  A
C2525      C2526   1.403       .  A
C2525      N2532   1.432       .  S
C2526      C2527   1.393       .  A
C2526      H2531   1.082       .  S
C2527      C2528   1.402       .  A
C2528      N2529   1.438       .  S
N2529      H2533   1.046       .  S
N2529      H2534   1.045       .  S
N2532      H2535   1.046       .  S
N2532      H2536   1.046       .  S
C2537      C2538   1.395       .  A
C2537      C2542   1.400       .  A
C2537      H2544   1.084       .  S
C2538      C2539   1.404       .  A
C2539      C2540   1.405       .  A
C2539      N2546   1.437       .  S
C2540      C2541   1.418       .  A
C2540      H2545   1.078       .  S
C2541      C2542   1.427       .  A
C2542      N2543   1.433       .  S
N2543      H2547   1.046       .  S
N2543      H2548   1.045       .  S
N2546      H2549   1.046       .  S
N2546      H2550   1.045       .  S
C2551      C2552   1.415       .  A
C2551      C2556   1.406       .  A
C2551      H2558   1.083       .  S
C2552      C2553   1.433       .  A
C2553      C2554   1.395       .  A
C2553      N2560   1.434       .  S
C2554      C2555   1.401       .  A
C2554      H2559   1.084       .  S
C2555      C2556   1.417       .  A
C2556      N2557   1.431       .  S
N2557      H2561   1.046       .  S
N2557      H2562   1.042       .  S
N2560      H2563   1.046       .  S
N2560      H2564   1.046       .  S
C2565      C2566   1.419       .  A
C2565      C2570   1.411       .  A
C2565      H2572   1.082       .  S
C2566      C2567   1.430       .  A
C2567      C2568   1.395       .  A
C2567      N2574   1.433       .  S
C2568      C2569   1.401       .  A
C2568      H2573   1.084       .  S
C2569      C2570   1.409       .  A
C2570      N2571   1.431       .  S
N2571      H2575   1.045       .  S
N2571      H2576   1.046       .  S
N2574      H2577   1.046       .  S
N2574      H2578   1.046       .  S
C2579      C2580   1.413       .  A
C2579      C2584   1.412       .  A
C2579      H2586   1.079       .  S
C2580      C2581   1.426       .  A
C2581      C2582   1.403       .  A
C2581      N2588   1.432       .  S
C2582      C2583   1.398       .  A
C2582      H2587   1.084       .  S
C2583      C2584   1.413       .  A
C2584      N2585   1.436       .  S
N2585      H2589   1.046       .  S
N2585      H2590   1.045       .  S
N2588      H2591   1.046       .  S
N2588      H2592   1.046       .  S
C2593      C2594   1.418       .  A
C2593      C2598   1.402       .  A
C2593      H2600   1.084       .  S
C2594      C2595   1.434       .  A
C2595      C2596   1.405       .  A
C2595      N2602   1.431       .  S
C2596      C2597   1.396       .  A
C2596      H2601   1.085       .  S
C2597      C2598   1.413       .  A
C2598      N2599   1.440       .  S
N2599      H2603   1.046       .  S
N2599      H2604   1.043       .  S
N2602      H2605   1.046       .  S
N2602      H2606   1.046       .  S
C2607      C2608   1.422       .  A
C2607      C2612   1.407       .  A
C2607      H2614   1.074       .  S
C2608      C2609   1.431       .  A
C2609      C2610   1.398       .  A
C2609      N2616   1.434       .  S
C2610      C2611   1.395       .  A
C2610      H2615   1.084       .  S
C2611      C2612   1.405       .  A
C2612      N2613   1.440       .  S
N2613      H2617   1.046       .  S
N2613      H2618   1.045       .  S
N2616      H2619   1.046       .  S
N2616      H2620   1.046       .  S
C2621      C2622   1.397       .  A
C2621      C2626   1.408       .  A
C2621      H2628   1.085       .  S
C2622      C2623   1.407       .  A
C2623      C2624   1.397       .  A
C2623      N2630   1.433       .  S
C2624      C2625   1.417       .  A
C2624      H2629   1.082       .  S
C2625      C2626   1.431       .  A
C2626      N2627   1.432       .  S
N2627      H2631   1.046       .  S
N2627      H2632   1.046       .  S
N2630      H2633   1.046       .  S
N2630      H2634   1.045       .  S
C2635      C2636   1.407       .  A
C2635      C2640   1.414       .  A
C2635      H2642   1.083       .  S
C2636      C2637   1.410       .  A
C2637      C2638   1.394       .  A
C2637      N2644   1.434       .  S
C2638      C2639   1.417       .  A
C2638      H2643   1.080       .  S
C2639      C2640   1.424       .  A
C2640      N2641   1.430       .  S
N2641      H2645   1.046       .  S
N2641      H2646   1.046       .  S
N2644      H2647   1.046       .  S
N2644      H2648   1.046       .  S
C2649      C2650   1.402       .  A
C2649      C2654   1.409       .  A
C2649      H2656   1.084       .  S
C2650      C2651   1.408       .  A
C2651      C2652   1.396       .  A
C2651      N2658   1.433       .  S
C2652      C2653   1.418       .  A
C2652      H2657   1.084       .  S
C2653      C2654   1.427       .  A
C2654      N2655   1.432       .  S
N2655      H2659   1.045       .  S
N2655      H2660   1.046       .  S
N2658      H2661   1.046       .  S
N2658      H2662   1.044       .  S
C2663      C2664   1.397       .  A
C2663      C2668   1.406       .  A
C2663      H2670   1.085       .  S
C2664      C2665   1.410       .  A
C2665      C2666   1.398       .  A
C2665      N2672   1.440       .  S
C2666      C2667   1.418       .  A
C2666      H2671   1.082       .  S
C2667      C2668   1.431       .  A
C2668      N2669   1.432       .  S
N2669      H2673   1.046       .  S
N2669      H2674   1.046       .  S
N2672      H2675   1.043       .  S
N2672      H2676   1.046       .  S
C2677      C2678   1.415       .  A
C2677      C2682   1.394       .  A
C2677      H2684   1.076       .  S
C2678      C2679   1.426       .  A
C2679      C2680   1.410       .  A
C2679      N2686   1.432       .  S
C2680      C2681   1.403       .  A
C2680      H2685   1.084       .  S
C2681      C2682   1.410       .  A
C2682      N2683   1.434       .  S
N2683      H2687   1.044       .  S
N2683      H2688   1.046       .  S
N2686      H2689   1.045       .  S
N2686      H2690   1.046       .  S
C2691      C2692   1.395       .  A
C2691      C2696   1.398       .  A
C2691      H2698   1.085       .  S
C2692      C2693   1.409       .  A
C2693      C2694   1.413       .  A
C2693      N2700   1.438       .  S
C2694      C2695   1.418       .  A
C2694      H2699   1.079       .  S
C2695      C2696   1.426       .  A
C2696      N2697   1.432       .  S
N2697      H2701   1.046       .  S
N2697      H2702   1.046       .  S
N2700      H2703   1.045       .  S
N2700      H2704   1.046       .  S
C2705      C2706   1.420       .  A
C2705      C2710   1.393       .  A
C2705      H2712   1.080       .  S
C2706      C2707   1.442       .  A
C2707      C2708   1.412       .  A
C2707      N2714   1.438       .  S
C2708      C2709   1.402       .  A
C2708      H2713   1.084       .  S
C2709      C2710   1.407       .  A
C2710      N2711   1.434       .  S
N2711      H2715   1.046       .  S
N2711      H2716   1.046       .  S
N2714      H2717   1.033       .  S
N2714      H2718   1.046       .  S
C2719      C2720   1.394       .  A
C2719      C2724   1.403       .  A
C2719      H2726   1.078       .  S
C2720      C2721   1.402       .  A
C2721      C2722   1.405       .  A
C2721      N2728   1.438       .  S
C2722      C2723   1.420       .  A
C2722      H2727   1.082       .  S
C2723      C2724   1.427       .  A
C2724      N2725   1.432       .  S
N2725      H2729   1.045       .  S
N2725      H2730   1.046       .  S
N2728      H2731   1.046       .  S
N2728      H2732   1.046       .  S
C2733      C2734   1.403       .  A
C2733      C2738   1.396       .  A
C2733      H2740   1.084       .  S
C2734      C2735   1.414       .  A
C2735      C2736   1.417       .  A
C2735      N2742   1.437       .  S
C2736      C2737   1.418       .  A
C2736      H2741   1.082       .  S
C2737      C2738   1.428       .  A
C2738      N2739   1.434       .  S
N2739      H2743   1.046       .  S
N2739      H2744   1.046       .  S
N2742      H2745   1.045       .  S
N2742      H2746   1.046       .  S
C2747      C2748   1.398       .  A
C2747      C2752   1.398       .  A
C2747      H2754   1.084       .  S
C2748      C2749   1.404       .  A
C2749      C2750   1.405       .  A
C2749      N2756   1.439       .  S
C2750      C2751   1.420       .  A
C2750      H2755   1.078       .  S
C2751      C2752   1.428       .  A
C2752      N2753   1.435       .  S
N2753      H2757   1.046       .  S
N2753      H2758   1.045       .  S
N2756      H2759   1.046       .  S
N2756      H2760   1.046       .  S
C2761      C2762   1.416       .  A
C2761      C2766   1.401       .  A
C2761      H2768   1.083       .  S
C2762      C2763   1.431       .  A
C2763      C2764   1.402       .  A
C2763      N2770   1.432       .  S
C2764      C2765   1.395       .  A
C2764      H2769   1.085       .  S
C2765      C2766   1.412       .  A
C2766      N2767   1.439       .  S
N2767      H2771   1.046       .  S
N2767      H2772   1.043       .  S
N2770      H2773   1.046       .  S
N2770      H2774   1.046       .  S
C2775      C2776   1.417       .  A
C2775      C2780   1.395       .  A
C2775      H2782   1.081       .  S
C2776      C2777   1.424       .  A
C2777      C2778   1.413       .  A
C2777      N2784   1.429       .  S
C2778      C2779   1.406       .  A
C2778      H2783   1.083       .  S
C2779      C2780   1.409       .  A
C2780      N2781   1.433       .  S
N2781      H2785   1.046       .  S
N2781      H2786   1.046       .  S
N2784      H2787   1.046       .  S
N2784      H2788   1.046       .  S
C2789      C2790   1.419       .  A
C2789      C2794   1.416       .  A
C2789      H2796   1.078       .  S
C2790      C2791   1.427       .  A
C2791      C2792   1.399       .  A
C2791      N2798   1.433       .  S
C2792      C2793   1.396       .  A
C2792      H2797   1.085       .  S
C2793      C2794   1.410       .  A
C2794      N2795   1.438       .  S
N2795      H2799   1.046       .  S
N2795      H2800   1.045       .  S
N2798      H2801   1.046       .  S
N2798      H2802   1.046       .  S
C2803      C2804   1.396       .  A
C2803      C2808   1.399       .  A
C2803      H2810   1.084       .  S
C2804      C2805   1.405       .  A
C2805      C2806   1.407       .  A
C2805      N2812   1.434       .  S
C2806      C2807   1.416       .  A
C2806      H2811   1.077       .  S
C2807      C2808   1.425       .  A
C2808      N2809   1.432       .  S
N2809      H2813   1.045       .  S
N2809      H2814   1.046       .  S
N2812      H2815   1.045       .  S
N2812      H2816   1.045       .  S
