geometry optimzed in LAMMPS
_audit_creation_date              2020-11-30 
_audit_creation_method            'lammps2cif' 
_symmetry_space_group_name_H-M    'P1' 
_symmetry_Int_Tables_number       1 
_symmetry_cell_setting            triclinic 
loop_ 
_symmetry_equiv_pos_as_xyz 
  x,y,z 
_cell_length_a                    45.40138699 
_cell_length_b                    41.77289127260346 
_cell_length_c                    31.009826039755264 
_cell_angle_alpha                 91.27068834939305 
_cell_angle_beta                  90.55880605415919 
_cell_angle_gamma                 89.98558199437258 
loop_ 
_atom_site_label 
_atom_site_type_symbol 
_atom_site_fract_x 
_atom_site_fract_y 
_atom_site_fract_z 
_atom_site_charge 
C1          C  0.98554965  0.37929064  0.17053930    -0.02300
C2          C  0.65679156  0.11680071  0.66586999    -0.02300
Zn3        Zn  0.68816585  0.09354969  0.27014933     1.49700
Zn4        Zn  0.64747430  0.12552293  0.19661533     1.49400
Zn5        Zn  0.68654946  0.17078754  0.26011269     1.49100
Zn6        Zn  0.71831556  0.12514963  0.18919185     1.49500
O7          O  0.68504263  0.12870595  0.22915340    -1.84000
O8          O  0.65128599  0.06559482  0.26733199    -0.74600
O9          O  0.62216513  0.16527232  0.20572876    -0.74400
O10         O  0.69048583  0.16527565  0.32552310    -0.74000
O11         O  0.62387535  0.08713345  0.21550053    -0.74600
O12         O  0.69090732  0.11243840  0.33075182    -0.74200
O13         O  0.64970220  0.19712064  0.24780184    -0.74800
O14         O  0.74554848  0.16313351  0.19753319    -0.74200
O15         O  0.65465142  0.12189448  0.13194651    -0.75000
O16         O  0.72159472  0.19675412  0.24070601    -0.74400
O17         O  0.70348630  0.12495754  0.12703022    -0.74800
O18         O  0.74304040  0.08505511  0.19852770    -0.74700
O19         O  0.72430893  0.06454495  0.25788433    -0.74500
C20         C  0.62802887  0.06596345  0.24392442     0.77300
C21         C  0.62614038  0.19180589  0.22602370     0.77800
C22         C  0.69178323  0.14031650  0.34845283     0.76700
C23         C  0.74369790  0.19017014  0.21712434     0.77100
C24         C  0.67797697  0.12323637  0.10949051     0.78200
C25         C  0.74328018  0.06399275  0.22765355     0.77300
C26         C  0.69716126  0.12765144  0.78316947     0.86600
C27         C  0.71715996  0.15460410  0.76867088    -0.53600
C28         C  0.72674057  0.15280161  0.72700646     0.09600
C29         C  0.71574991  0.12133020  0.70388113     0.20500
C30         C  0.67238577  0.12553500  0.74798084    -0.54300
C31         C  0.68085404  0.12228801  0.70498883     0.09700
C32         C  0.71441243  0.09707244  0.77446205    -0.53900
C33         C  0.72575643  0.09380692  0.73460560     0.10200
H34         H  0.72463811  0.17295563  0.79149548     0.14700
H35         H  0.72451632  0.11833571  0.67224363     0.00500
H36         H  0.64978810  0.12305365  0.75741932     0.15000
H37         H  0.71970345  0.08033715  0.79971080     0.14800
Zn38       Zn  0.95031922  0.33200880  0.76115952     1.49700
Zn39       Zn  0.92002508  0.37354690  0.68949608     1.49400
Zn40       Zn  0.95050167  0.40900249  0.77056527     1.49100
Zn41       Zn  0.99012454  0.37442253  0.69761935     1.49500
O42         O  0.95304165  0.37233773  0.73002545    -1.84000
O43         O  0.91450930  0.30587571  0.74277601    -0.74600
O44         O  0.89472438  0.41203629  0.70027183    -0.74400
O45         O  0.94687991  0.39366614  0.83178659    -0.74000
O46         O  0.89281355  0.33623740  0.69495061    -0.74600
O47         O  0.94897142  0.34042817  0.82596813    -0.74200
O48         O  0.91509995  0.43707042  0.75684387    -0.74800
O49         O  0.01575614  0.41156962  0.71967821    -0.74200
O50         O  0.93414850  0.37382995  0.62826192    -0.75800
O51         O  0.98734233  0.43643070  0.76809052    -0.74400
O52         O  0.98216944  0.38000772  0.63288769    -0.74800
O53         O  0.01278224  0.33286515  0.70412802    -0.74700
O54         O  0.98513853  0.30418922  0.74782677    -0.74500
C55         C  0.89337788  0.31079384  0.71651721     0.77300
C56         C  0.89491233  0.43488047  0.72804196     0.77800
C57         C  0.94729136  0.36615350  0.84874741     0.76700
C58         C  0.01121331  0.43435308  0.74689384     0.77100
C59         C  0.95875923  0.37772639  0.60994422     0.78200
C60         C  0.00789529  0.30731234  0.72467836     0.77300
C61         C  0.94161265  0.37228996  0.28082622     0.86600
C62         C  0.92386544  0.34281766  0.26398473    -0.53600
C63         C  0.91526730  0.34291908  0.22144240     0.09600
C64         C  0.92547297  0.37387678  0.19933021     0.20500
C65         C  0.96716301  0.37673746  0.24952615    -0.54300
C66         C  0.96041340  0.37561086  0.20629314     0.09700
C67         C  0.92032184  0.39955896  0.27029210    -0.53900
C68         C  0.91041445  0.40036541  0.22842338     0.10200
H69         H  0.91339917  0.32644751  0.28557384     0.14700
H70         H  0.91897553  0.37504214  0.16524208     0.00500
H71         H  0.98954577  0.37980496  0.26136279     0.15000
H72         H  0.91119801  0.41510183  0.29534629     0.14800
C73         C  0.48131002  0.37903404  0.24452259    -0.02300
C74         C  0.15478306  0.12373688  0.73192907    -0.02300
Zn75       Zn  0.21454135  0.13035566  0.22353893     1.49700
Zn76       Zn  0.18691682  0.09017043  0.14478188     1.49400
Zn77       Zn  0.14705150  0.13748107  0.20513202     1.49100
Zn78       Zn  0.19509075  0.16521375  0.13756136     1.49500
O79         O  0.18545215  0.13077987  0.17723601    -1.84000
O80         O  0.24182464  0.09263639  0.21837637    -0.74600
O81         O  0.15065437  0.06424472  0.15767943    -0.74400
O82         O  0.15100526  0.14645199  0.27082608    -0.74000
O83         O  0.22229259  0.06412240  0.16389413    -0.74600
O84         O  0.19654443  0.12947499  0.28180116    -0.74200
O85         O  0.12269002  0.09664556  0.19823838    -0.74800
O86         O  0.16085172  0.19628275  0.13560857    -0.74200
O87         O  0.18913364  0.09720187  0.07962387    -0.75000
O88         O  0.12650147  0.17559740  0.17789914    -0.74400
O89         O  0.20047605  0.14882289  0.07539013    -0.74800
O90         O  0.23081466  0.19065008  0.15939437    -0.74700
O91         O  0.23827841  0.17072969  0.22394132    -0.74500
C92         C  0.24182417  0.06806850  0.19339314     0.77300
C93         C  0.12740379  0.06965865  0.17938195     0.77800
C94         C  0.17217611  0.13965663  0.29644044     0.76700
C95         C  0.13530424  0.19707820  0.15229984     0.77100
C96         C  0.19540923  0.12159708  0.05732589     0.78200
C97         C  0.24384940  0.19162691  0.19604642     0.77300
C98         C  0.19715348  0.12175808  0.62008202     0.86600
C99         C  0.21618178  0.09221349  0.63250182    -0.53600
C100        C  0.22555707  0.09113434  0.67473974     0.09600
C101        C  0.21485048  0.12088133  0.70112245     0.20500
C102        C  0.17231494  0.12408486  0.65288711    -0.54300
C103        C  0.17982433  0.12168312  0.69570357     0.09700
C104        C  0.21744449  0.14934160  0.63327465    -0.53900
C105        C  0.22810691  0.14892463  0.67460728     0.10200
H106        H  0.22657147  0.07671217  0.60884024     0.14700
H107        H  0.22235883  0.12108892  0.73499957     0.00500
H108        H  0.14969884  0.12685081  0.64210669     0.15000
H109        H  0.22532550  0.16635638  0.61000195     0.14800
Zn110      Zn  0.45299674  0.33182004  0.64883624     1.49700
Zn111      Zn  0.41916858  0.36890318  0.72701682     1.49400
Zn112      Zn  0.48985060  0.36688148  0.72532363     1.49100
Zn113      Zn  0.45269993  0.40889498  0.65732352     1.49500
O114        O  0.45373080  0.36890064  0.68942537    -1.84000
O115        O  0.41753626  0.30351061  0.66146017    -0.74600
O116        O  0.43120849  0.36944633  0.78994070    -0.74400
O117        O  0.51464823  0.32776456  0.71030221    -0.74000
O118        O  0.39497693  0.32951910  0.71534272    -0.74600
O119        O  0.49067654  0.30493733  0.65488643    -0.74200
O120        O  0.48017511  0.36724838  0.78951647    -0.74800
O121        O  0.48886399  0.43510556  0.67166799    -0.74200
O122        O  0.39207606  0.40671852  0.71710171    -0.75000
O123        O  0.51588215  0.40481676  0.71444622    -0.74400
O124        O  0.41686046  0.43597414  0.67112337    -0.74800
O125        O  0.45130431  0.39995779  0.59258037    -0.74700
O126        O  0.44967271  0.34676339  0.58630142    -0.74500
C127        C  0.39663061  0.30608873  0.68857355     0.77300
C128        C  0.45587163  0.36844142  0.80982378     0.77800
C129        C  0.51266750  0.30600912  0.68093534     0.76700
C130        C  0.51242002  0.43027634  0.69323567     0.77100
C131        C  0.39433939  0.43161210  0.69440971     0.78200
C132        C  0.44966124  0.37439809  0.56945509     0.77300
C133        C  0.43256020  0.37754374  0.13597070     0.86600
C134        C  0.41781873  0.40922139  0.14961909    -0.53600
C135        C  0.40901800  0.41124565  0.19126826     0.09600
C136        C  0.42021323  0.38211403  0.21820255     0.20500
C137        C  0.45959272  0.37566437  0.16649538    -0.54300
C138        C  0.45461079  0.37992592  0.21002944     0.09700
C139        C  0.41178847  0.35191121  0.15131940    -0.53900
C140        C  0.40569206  0.35231867  0.19447083     0.10200
H141        H  0.41294558  0.42826318  0.12746932     0.14700
H142        H  0.41556259  0.38433252  0.25272312     0.00500
H143        H  0.48164998  0.37349784  0.15414164     0.15000
H144        H  0.40087120  0.33599074  0.12818627     0.14800
C145        C  0.43796092  0.37380789  0.08663395     0.01500
C146        C  0.41840241  0.38802102  0.05607725     0.04300
C147        C  0.42573238  0.38901827  0.01221695    -0.11800
C148        C  0.44965868  0.37130235  0.99638637     0.23600
C149        C  0.46643535  0.35271189  0.02483182    -0.12300
C150        C  0.46026394  0.35316317  0.06949939     0.05000
C151        C  0.45400120  0.36882075  0.94888262     0.27400
C152        C  0.43927803  0.34463548  0.92463644    -0.13000
C153        C  0.44051232  0.34412636  0.87926088     0.05500
C154        C  0.45601327  0.36819423  0.85768070    -0.09000
C155        C  0.47054091  0.39253763  0.88201824     0.06300
C156        C  0.46990891  0.39255366  0.92748532    -0.13300
Br157      Br  0.49731802  0.32576824  0.00176229    -0.05400
Br158      Br  0.37806273  0.39893332  0.06944899     0.00200
Br159      Br  0.42095434  0.31024165  0.84671413     0.00700
Br160      Br  0.48967704  0.42583298  0.96077805    -0.03800
Br161      Br  0.47872472  0.32048579  0.10380676     0.00800
Br162      Br  0.40192759  0.41364201  0.97279185    -0.03100
Br163      Br  0.41630075  0.31295865  0.95376796    -0.03900
Br164      Br  0.48874327  0.42768451  0.85328921     0.00100
C165        C  0.25570047  0.16800373  0.68455546     0.01500
C166        C  0.25852880  0.18896262  0.72099406     0.04300
C167        C  0.28107491  0.21229228  0.72250713    -0.11800
C168        C  0.30239529  0.21306785  0.68984378     0.23600
C169        C  0.30194262  0.18964273  0.65667906    -0.12300
C170        C  0.27922817  0.16682206  0.65450544     0.05000
C171        C  0.32632076  0.23740112  0.69116330     0.27400
C172        C  0.32160973  0.26773730  0.67330643    -0.13000
C173        C  0.34472437  0.29016572  0.67256626     0.05500
C174        C  0.37287896  0.28200784  0.68844656    -0.09000
C175        C  0.37767188  0.25165918  0.70613820     0.06300
C176        C  0.35432570  0.22952580  0.70798196    -0.13300
Br177      Br  0.33239984  0.18931548  0.61352441    -0.05400
Br178      Br  0.23535804  0.18326598  0.77198235     0.00200
Br179      Br  0.33805278  0.33203491  0.64913564     0.00700
Br180      Br  0.36051010  0.18831821  0.73348889    -0.03800
Br181      Br  0.28263105  0.13192131  0.61270133     0.00800
Br182      Br  0.28276820  0.24364882  0.76909001    -0.03100
Br183      Br  0.28361410  0.27823900  0.64909794    -0.03900
Br184      Br  0.41603342  0.24079592  0.72870281     0.00100
C185        C  0.37014569  0.45575656  0.69451320     0.01500
C186        C  0.35977654  0.46846018  0.65520995     0.04300
C187        C  0.33717581  0.49159858  0.65522407    -0.11800
C188        C  0.32372233  0.00157592  0.69310588     0.23600
C189        C  0.33353196  0.48819009  0.73331931    -0.12300
C190        C  0.35699880  0.46603835  0.73366008     0.05000
C191        C  0.29797895  0.02390710  0.69322220     0.27400
C192        C  0.30163628  0.05655101  0.70361898    -0.13000
C193        C  0.27695800  0.07701212  0.70603863     0.05500
C194        C  0.24924169  0.06718145  0.68825211    -0.09000
C195        C  0.24592450  0.03390116  0.67823299     0.06300
C196        C  0.26957547  0.01234380  0.68360616    -0.13300
Br197      Br  0.32237801  0.00901400  0.78647192    -0.05400
Br198      Br  0.37465558  0.45259593  0.60063442     0.00200
Br199      Br  0.28198173  0.11457937  0.74178493     0.00700
Br200      Br  0.26508489  0.46745551  0.66674713    -0.03800
Br201      Br  0.37163353  0.45095780  0.78827144     0.00800
Br202      Br  0.32429724  0.51007683  0.60167640    -0.03100
Br203      Br  0.34078729  0.07359011  0.71345045    -0.03900
Br204      Br  0.20905635  0.01607347  0.65925657     0.00100
C205        C  0.16970431  0.14380093  0.34427049     0.01500
C206        C  0.19451227  0.15513318  0.36819153     0.04300
C207        C  0.19564002  0.15243740  0.41330414    -0.11800
C208        C  0.17141467  0.14014602  0.43544654     0.23600
C209        C  0.14533594  0.13232880  0.41243337    -0.12300
C210        C  0.14446722  0.13388289  0.36690666     0.05000
C211        C  0.17414449  0.13423964  0.48261232     0.27400
C212        C  0.18211997  0.10378910  0.49692722    -0.13000
C213        C  0.18640091  0.09821856  0.54135774     0.05500
C214        C  0.18588229  0.12427287  0.57225903    -0.09000
C215        C  0.17448680  0.15409571  0.55725419     0.06300
C216        C  0.16923146  0.15898323  0.51291230    -0.13300
Br217      Br  0.11118569  0.11863315  0.44362487    -0.05400
Br218      Br  0.22677597  0.17591829  0.33973355     0.00200
Br219      Br  0.18636887  0.05374116  0.55688653     0.00700
Br220      Br  0.15572090  0.20000183  0.49277934    -0.03800
Br221      Br  0.10905548  0.12112440  0.33632960     0.00800
Br222      Br  0.23094824  0.16444397  0.44492987    -0.03100
Br223      Br  0.18723713  0.06950432  0.45461251    -0.03900
Br224      Br  0.16406718  0.18886102  0.59613299     0.00100
C225        C  0.38440962  0.32739086  0.21183557     0.01500
C226        C  0.38338842  0.29605842  0.19178766     0.04300
C227        C  0.35908574  0.27587177  0.19753561    -0.11800
C228        C  0.33575174  0.28560820  0.22393910     0.23600
C229        C  0.33788956  0.31431368  0.24814702    -0.12300
C230        C  0.36239863  0.33486198  0.24330764     0.05000
C231        C  0.30879783  0.26542559  0.22426727     0.27400
C232        C  0.28618557  0.27084970  0.19400309    -0.13000
C233        C  0.26406392  0.24768728  0.18646282     0.05500
C234        C  0.26568362  0.21757893  0.20691097    -0.09000
C235        C  0.28824744  0.21284118  0.23844770     0.06300
C236        C  0.30858992  0.23742791  0.24845695    -0.13300
Br237      Br  0.30603660  0.32581948  0.28638462    -0.05400
Br238      Br  0.41496117  0.27840165  0.15652411     0.00200
Br239      Br  0.23169079  0.25853521  0.14847726     0.00700
Br240      Br  0.33768785  0.23240007  0.29368457    -0.03800
Br241      Br  0.36300077  0.37317209  0.27923919     0.00800
Br242      Br  0.35676489  0.23480263  0.16721950    -0.03100
Br243      Br  0.28661056  0.30963463  0.16121235    -0.03900
Br244      Br  0.29455447  0.17194549  0.26519658     0.00100
C245        C  0.26523701  0.04369956  0.19848396     0.01500
C246        C  0.28196958  0.03385409  0.16245032     0.04300
C247        C  0.30498734  0.51348928  0.16572785    -0.11800
C248        C  0.31176729  0.50109217  0.20656797     0.23600
C249        C  0.29348299  0.00710832  0.24362804    -0.12300
C250        C  0.27117502  0.03034175  0.23923622     0.05000
C251        C  0.33590258  0.47734520  0.21048357     0.27400
C252        C  0.33038643  0.44510207  0.19993232    -0.13000
C253        C  0.35396743  0.42353400  0.19423413     0.05500
C254        C  0.38369097  0.43356518  0.20160757    -0.09000
C255        C  0.38865154  0.46681976  0.20922643     0.06300
C256        C  0.36496001  0.48795350  0.21653023    -0.13300
Br257      Br  0.30160598  0.98848641  0.29885498    -0.05400
Br258      Br  0.27602210  0.05366795  0.10731231     0.00200
Br259      Br  0.34424110  0.38316588  0.16667443     0.00700
Br260      Br  0.37004380  0.02946677  0.23097430    -0.03800
Br261      Br  0.24834080  0.04299492  0.28898633     0.00800
Br262      Br  0.32775676  0.50033808  0.11607761    -0.03100
Br263      Br  0.29010891  0.43140814  0.18977295    -0.03900
Br264      Br  0.42612185  0.48614235  0.19843018     0.00100
C265        C  0.19481709  0.11882740  0.00919273     0.01500
C266        C  0.16835187  0.11016210  0.98766286     0.04300
C267        C  0.16664053  0.10949898  0.94221076    -0.11800
C268        C  0.19111474  0.11838446  0.91746839     0.23600
C269        C  0.21777563  0.12660795  0.93878139    -0.12300
C270        C  0.21967877  0.12666422  0.98442499     0.05000
C271        C  0.18738193  0.12254224  0.86967589     0.27400
C272        C  0.19361247  0.09768721  0.84037540    -0.13000
C273        C  0.18570780  0.09988957  0.79613194     0.05500
C274        C  0.17044174  0.12750358  0.77909361    -0.09000
C275        C  0.16732611  0.15407833  0.81016243     0.06300
C276        C  0.17541167  0.15093452  0.85436775    -0.13300
Br277      Br  0.25127120  0.13885455  0.90517409    -0.05400
Br278      Br  0.13333032  0.10233742  0.02037683     0.00200
Br279      Br  0.19462343  0.06196049  0.76188873     0.00700
Br280      Br  0.16840735  0.18505822  0.89705310    -0.03800
Br281      Br  0.25636646  0.13735800  0.01302265     0.00800
Br282      Br  0.13013432  0.09785181  0.91363011    -0.03100
Br283      Br  0.21183658  0.05945546  0.86268112    -0.03900
Br284      Br  0.14979912  0.19522297  0.80064925     0.00100
C285        C  0.46827713  0.37722451  0.29315137     0.01500
C286        C  0.45507750  0.40550490  0.31276713     0.04300
C287        C  0.44843371  0.40751774  0.35744654    -0.11800
C288        C  0.44859231  0.38005263  0.38224900     0.23600
C289        C  0.45483798  0.35090505  0.36199476    -0.12300
C290        C  0.46976815  0.35020092  0.32227363     0.05000
C291        C  0.44804611  0.38170294  0.43057328     0.27400
C292        C  0.47502290  0.38119498  0.45370626    -0.13000
C293        C  0.47537149  0.37883801  0.49895582     0.05500
C294        C  0.44880015  0.37700850  0.52175786    -0.09000
C295        C  0.42175511  0.37822100  0.49894771     0.06300
C296        C  0.42136364  0.38056150  0.45346000    -0.13300
Br297      Br  0.44585747  0.31204161  0.39239214    -0.05400
Br298      Br  0.44659163  0.44357655  0.28197193     0.00200
Br299      Br  0.51241106  0.37748772  0.52990910     0.00700
Br300      Br  0.38447653  0.38136840  0.42222773    -0.03800
Br301      Br  0.49737594  0.31498755  0.32299876     0.00800
Br302      Br  0.43914671  0.44795379  0.38573013    -0.03100
Br303      Br  0.51178453  0.38318662  0.42324837    -0.03900
Br304      Br  0.38533754  0.37614329  0.53013018     0.00100
C305        C  0.03304137  0.46059747  0.75131752     0.01500
C306        C  0.05932171  0.45712602  0.77545632     0.04300
C307        C  0.08025100  0.48223458  0.77742769    -0.11800
C308        C  0.07436192  0.01132003  0.75723170     0.23600
C309        C  0.04616607  0.01638936  0.73892296    -0.12300
C310        C  0.02739952  0.48948792  0.73029769     0.05000
C311        C  0.09734983  0.03696775  0.75439044     0.27400
C312        C  0.09619522  0.06425958  0.78115097    -0.13000
C313        C  0.11338243  0.09165650  0.77247949     0.05500
C314        C  0.13433867  0.09216999  0.73743813    -0.09000
C315        C  0.13431579  0.06330463  0.71035888     0.06300
C316        C  0.11715115  0.03608353  0.72025064    -0.13300
Br317      Br  0.03641381  0.05717244  0.71453487    -0.05400
Br318      Br  0.06629649  0.41821426  0.80617809     0.00200
Br319      Br  0.10302801  0.12913541  0.80674824     0.00700
Br320      Br  0.11863217  0.99701494  0.68480154    -0.03800
Br321      Br  0.99138745  0.49432322  0.69732088     0.00800
Br322      Br  0.11653790  0.47733439  0.80940153    -0.03100
Br323      Br  0.06974552  0.06366070  0.82976889    -0.03900
Br324      Br  0.14922210  0.05986602  0.65317654     0.00100
C325        C  0.02884031  0.28026206  0.72121944     0.01500
C326        C  0.03726132  0.26813947  0.68025872     0.04300
C327        C  0.05715555  0.24237407  0.67705241    -0.11800
C328        C  0.06840207  0.22834783  0.71466522     0.23600
C329        C  0.05918006  0.23956689  0.75548121    -0.12300
C330        C  0.03963005  0.26558233  0.75882566     0.05000
C331        C  0.09039431  0.20217862  0.71139742     0.27400
C332        C  0.08130636  0.17031103  0.70921815    -0.13000
C333        C  0.10240708  0.14586118  0.70571997     0.05500
C334        C  0.13282298  0.15188608  0.71686765    -0.09000
C335        C  0.14156186  0.18426554  0.70855612     0.06300
C336        C  0.12035501  0.20918808  0.70710149    -0.13300
Br337      Br  0.07322531  0.21909403  0.80689305    -0.05400
Br338      Br  0.02021854  0.28531328  0.62838256     0.00200
Br339      Br  0.08994500  0.11099334  0.66808759     0.00700
Br340      Br  0.13207452  0.25365296  0.70338562    -0.03800
Br341      Br  0.02869408  0.28161865  0.81525883     0.00800
Br342      Br  0.06891166  0.22585448  0.62118774    -0.03100
Br343      Br  0.03977642  0.16020575  0.70766345    -0.03900
Br344      Br  0.18145869  0.19801837  0.70400495     0.00100
C345        C  0.95158951  0.37208322  0.32941278     0.01500
C346        C  0.96075846  0.40119825  0.35062921     0.04300
C347        C  0.96417941  0.40311966  0.39598181    -0.11800
C348        C  0.95990199  0.37597527  0.42100736     0.23600
C349        C  0.95459663  0.34630826  0.40049065    -0.12300
C350        C  0.95192499  0.34388260  0.35513746     0.05000
C351        C  0.96035490  0.37844871  0.46910565     0.27400
C352        C  0.98674866  0.37481755  0.49258443    -0.13000
C353        C  0.98666777  0.37515894  0.53823188     0.05500
C354        C  0.95973598  0.37919737  0.56122096    -0.09000
C355        C  0.93328142  0.38366477  0.53659242     0.06300
C356        C  0.93379462  0.38290275  0.49113114    -0.13300
Br357      Br  0.95113383  0.30869449  0.43560271    -0.05400
Br358      Br  0.97074098  0.43876625  0.31881265     0.00200
Br359      Br  0.02408695  0.36894575  0.56728535     0.00700
Br360      Br  0.89769650  0.38723375  0.45798963    -0.03800
Br361      Br  0.95521510  0.30090862  0.33176002     0.00800
Br362      Br  0.97416897  0.44322392  0.42467869    -0.03100
Br363      Br  0.02299720  0.36840110  0.46137969    -0.03900
Br364      Br  0.89538456  0.39169268  0.56281435     0.00100
C365        C  0.87048569  0.45861073  0.72699989     0.01500
C366        C  0.85663163  0.46898275  0.76557130     0.04300
C367        C  0.83247585  0.99222098  0.76374254    -0.11800
C368        C  0.82197768  0.00210091  0.72319900     0.23600
C369        C  0.83398745  0.48855782  0.68533994    -0.12300
C370        C  0.85942278  0.46934656  0.68693677     0.05000
C371        C  0.79694590  0.02492748  0.72096865     0.27400
C372        C  0.76787995  0.01415753  0.72620019    -0.13000
C373        C  0.74477186  0.03637820  0.73199284     0.05500
C374        C  0.75009457  0.06977091  0.72795471    -0.09000
C375        C  0.77989913  0.07997076  0.72801107     0.06300
C376        C  0.80282615  0.05789088  0.72133087    -0.13300
Br377      Br  0.81760028  0.50122291  0.63063275    -0.05400
Br378      Br  0.86989758  0.45418983  0.82106791     0.00200
Br379      Br  0.70833571  0.02063051  0.75565682     0.00700
Br380      Br  0.84299757  0.07272121  0.71655708    -0.03800
Br381      Br  0.88015119  0.46013155  0.63410136     0.00800
Br382      Br  0.81385372  0.00809734  0.81575625    -0.03100
Br383      Br  0.75887918  0.46523183  0.72989392    -0.03900
Br384      Br  0.79120260  0.12097349  0.75230518     0.00100
C385        C  0.74724846  0.17876210  0.71007127     0.01500
C386        C  0.74413739  0.21095651  0.72624264     0.04300
C387        C  0.76714272  0.23325389  0.72223053    -0.11800
C388        C  0.79294077  0.22463910  0.70047987     0.23600
C389        C  0.79450541  0.19509564  0.67842506    -0.12300
C390        C  0.77157917  0.17249519  0.68192841     0.05000
C391        C  0.81921660  0.24577856  0.70336265     0.27400
C392        C  0.82587837  0.26658240  0.66988536    -0.13000
C393        C  0.85097905  0.28637884  0.67292369     0.05500
C394        C  0.86873780  0.28704132  0.71115491    -0.09000
C395        C  0.86190975  0.26542278  0.74449924     0.06300
C396        C  0.83768597  0.24452779  0.73991586    -0.13300
Br397      Br  0.82954989  0.18520602  0.64543386    -0.05400
Br398      Br  0.70793049  0.22654692  0.75189014     0.00200
Br399      Br  0.86112752  0.31060081  0.62263819     0.00700
Br400      Br  0.82937698  0.21377356  0.78394790    -0.03800
Br401      Br  0.77677785  0.13383567  0.64826094     0.00800
Br402      Br  0.76415056  0.27566632  0.74801143    -0.03100
Br403      Br  0.80023440  0.26777884  0.61980832    -0.03900
Br404      Br  0.88418211  0.26422393  0.79797461     0.00100
C405        C  0.60591414  0.04018338  0.24800700     0.01500
C406        C  0.60583532  0.01454601  0.21783938     0.04300
C407        C  0.58881170  0.48742687  0.22950869    -0.11800
C408        C  0.56415533  0.49146623  0.25654280     0.23600
C409        C  0.56298643  0.01697819  0.28294813    -0.12300
C410        C  0.58457029  0.04129876  0.28080192     0.05000
C411        C  0.54106455  0.46588111  0.25714696     0.27400
C412        C  0.51790106  0.46619970  0.22732998    -0.13000
C413        C  0.50053373  0.43841805  0.21898401     0.05500
C414        C  0.50262819  0.41036321  0.24611113    -0.09000
C415        C  0.52639544  0.41205616  0.27763844     0.06300
C416        C  0.54499432  0.43914078  0.28261663    -0.13300
Br417      Br  0.53326107  0.01887487  0.32688419    -0.05400
Br418      Br  0.63539000  0.01267603  0.17348955     0.00200
Br419      Br  0.48198116  0.44055422  0.16321553     0.00700
Br420      Br  0.57714269  0.44019862  0.32433707    -0.03800
Br421      Br  0.58474509  0.07639956  0.32220677     0.00800
Br422      Br  0.59288381  0.44914494  0.19434470    -0.03100
Br423      Br  0.51156934  0.50554324  0.19615704    -0.03900
Br424      Br  0.53841399  0.37668143  0.31190721     0.00100
C425        C  0.60293905  0.21712088  0.22424583     0.01500
C426        C  0.59402412  0.23324211  0.26242317     0.04300
C427        C  0.57375354  0.25871809  0.26074747    -0.11800
C428        C  0.56039818  0.26707340  0.22130572     0.23600
C429        C  0.56849321  0.25038086  0.18318910    -0.12300
C430        C  0.59006012  0.22596318  0.18445342     0.05000
C431        C  0.53916016  0.29450507  0.21973624     0.27400
C432        C  0.50870206  0.28981413  0.22420625    -0.13000
C433        C  0.48941891  0.31649807  0.22902768     0.05500
C434        C  0.50058098  0.34864821  0.22947344    -0.09000
C435        C  0.52969893  0.35144712  0.21183845     0.06300
C436        C  0.54941719  0.32540141  0.21214602    -0.13300
Br437      Br  0.55062316  0.26191174  0.12901684    -0.05400
Br438      Br  0.60807099  0.21937752  0.31779069     0.00200
Br439      Br  0.44946171  0.30694519  0.24378418     0.00700
Br440      Br  0.59074756  0.33184434  0.20056109    -0.03800
Br441      Br  0.60318167  0.20630468  0.13108941     0.00800
Br442      Br  0.56568557  0.28310634  0.31261187    -0.03100
Br443      Br  0.49409816  0.24653299  0.22784003    -0.03900
Br444      Br  0.54157564  0.38555167  0.17482549     0.00100
C445        C  0.67546181  0.12431022  0.06183053     0.01500
C446        C  0.68129586  0.15320515  0.04089261     0.04300
C447        C  0.68080393  0.15424444  0.99551291    -0.11800
C448        C  0.67452343  0.12635920  0.97057732     0.23600
C449        C  0.66781303  0.09764019  0.99152747    -0.12300
C450        C  0.66809658  0.09666948  0.03707055     0.05000
C451        C  0.67921517  0.12652930  0.92293465     0.27400
C452        C  0.65675088  0.13578793  0.89417224    -0.13000
C453        C  0.66272668  0.13968162  0.84977145     0.05500
C454        C  0.69057789  0.13089555  0.83255907    -0.09000
C455        C  0.71375652  0.12524428  0.86326659     0.06300
C456        C  0.70778012  0.12183331  0.90736348    -0.13300
Br457      Br  0.65972066  0.05937613  0.95760256    -0.05400
Br458      Br  0.69006943  0.19147341  0.07461860     0.00200
Br459      Br  0.63620286  0.16643316  0.81806348     0.00700
Br460      Br  0.73911970  0.11117799  0.94746837    -0.03800
Br461      Br  0.65993817  0.05715600  0.06561014     0.00800
Br462      Br  0.69026393  0.19356833  0.96721883    -0.03100
Br463      Br  0.61793417  0.14423372  0.91639615    -0.03900
Br464      Br  0.75487242  0.12521490  0.84779298     0.00100
C465        C  0.88201674  0.41859916  0.21894546     0.01500
C466        C  0.85745565  0.41539086  0.24680769     0.04300
C467        C  0.83371064  0.43729085  0.24557551    -0.11800
C468        C  0.83364036  0.46252673  0.21623776     0.23600
C469        C  0.85600331  0.46346223  0.18501464    -0.12300
C470        C  0.87932101  0.44084559  0.18515648     0.05000
C471        C  0.81026114  0.48809901  0.21861169     0.27400
C472        C  0.78529737  0.48696938  0.19102512    -0.13000
C473        C  0.76211496  0.01076772  0.19953751     0.05500
C474        C  0.76624431  0.03839082  0.22597095    -0.09000
C475        C  0.79292758  0.04210261  0.24928407     0.06300
C476        C  0.81522012  0.01849611  0.24617477    -0.13300
Br477      Br  0.85491230  0.49646410  0.14247062    -0.05400
Br478      Br  0.85452987  0.37923890  0.28443674     0.00200
Br479      Br  0.72605803  0.00582651  0.16670979     0.00700
Br480      Br  0.85176241  0.02411518  0.27767337    -0.03800
Br481      Br  0.90459240  0.43856709  0.13586447     0.00800
Br482      Br  0.80106144  0.43301483  0.28443200    -0.03100
Br483      Br  0.78032393  0.45125677  0.15115330    -0.03900
Br484      Br  0.79900810  0.07985521  0.28515622     0.00100
C485        C  0.89229598  0.31885755  0.20497466     0.01500
C486        C  0.89443304  0.28643437  0.21784878     0.04300
C487        C  0.86963010  0.26629243  0.21711682    -0.11800
C488        C  0.84248434  0.27761363  0.20200126     0.23600
C489        C  0.84084007  0.30792538  0.18353277    -0.12300
C490        C  0.86587688  0.32798419  0.18313597     0.05000
C491        C  0.81592648  0.25701623  0.20456117     0.27400
C492        C  0.80858342  0.23586702  0.17029057    -0.13000
C493        C  0.78430692  0.21510456  0.17355962     0.05500
C494        C  0.76787227  0.21420553  0.21234888    -0.09000
C495        C  0.77536358  0.23599497  0.24664546     0.06300
C496        C  0.79896167  0.25758225  0.24224199    -0.13300
Br497      Br  0.80366904  0.32193824  0.15954028    -0.05400
Br498      Br  0.93160714  0.26756428  0.23267852     0.00200
Br499      Br  0.77339725  0.18940485  0.12325460     0.00700
Br500      Br  0.80884731  0.28780516  0.28824867    -0.03800
Br501      Br  0.86298458  0.36490270  0.14758849     0.00800
Br502      Br  0.87242618  0.22304467  0.23780073    -0.03100
Br503      Br  0.83250684  0.23509972  0.11907316    -0.03900
Br504      Br  0.75513248  0.23578805  0.30124082     0.00100
C505        C  0.53620505  0.45484380  0.69310495     0.01500
C506        C  0.54089696  0.47275732  0.65553253     0.04300
C507        C  0.56100306  0.49831656  0.65636923    -0.11800
C508        C  0.57772213  0.00758136  0.69338544     0.23600
C509        C  0.57476253  0.48632338  0.73033590    -0.12300
C510        C  0.55393891  0.46130909  0.73029328     0.05000
C511        C  0.59909973  0.03455397  0.69429755     0.27400
C512        C  0.62851703  0.02936718  0.68315884    -0.13000
C513        C  0.64777870  0.05558585  0.67840652     0.05500
C514        C  0.63738668  0.08788558  0.68253431    -0.09000
C515        C  0.60947061  0.09151619  0.70441525     0.06300
C516        C  0.59005256  0.06523719  0.70721641    -0.13300
Br517      Br  0.59873564  0.99697700  0.78025986    -0.05400
Br518      Br  0.52171338  0.46127905  0.60128386     0.00200
Br519      Br  0.68710835  0.04521508  0.66109466     0.00700
Br520      Br  0.55019143  0.07085697  0.72787563    -0.03800
Br521      Br  0.54999941  0.43700659  0.78209365     0.00800
Br522      Br  0.56308344  0.02891168  0.60743140    -0.03100
Br523      Br  0.64190196  0.48420612  0.67143156    -0.03900
Br524      Br  0.59571504  0.13016646  0.73368333     0.00100
C525        C  0.53653939  0.28149766  0.67687984     0.01500
C526        C  0.55015234  0.27541612  0.63667703     0.04300
C527        C  0.57156201  0.25102850  0.63223133    -0.11800
C528        C  0.57962336  0.23236556  0.66784924     0.23600
C529        C  0.56717092  0.23948240  0.70845369    -0.12300
C530        C  0.54594546  0.26404005  0.71309989     0.05000
C531        C  0.59974990  0.20408799  0.66208378     0.27400
C532        C  0.58869900  0.17508081  0.64521350    -0.13000
C533        C  0.60714429  0.14773346  0.64118588     0.05500
C534        C  0.63700064  0.14811837  0.65841443    -0.09000
C535        C  0.64865418  0.17955074  0.66552337     0.06300
C536        C  0.63007210  0.20665630  0.67019640    -0.13300
Br537      Br  0.57873223  0.21494986  0.75767588    -0.05400
Br538      Br  0.54071604  0.30162001  0.58798478     0.00200
Br539      Br  0.58817592  0.11142868  0.61347289     0.00700
Br540      Br  0.64614655  0.24834675  0.68456116    -0.03800
Br541      Br  0.52902864  0.27264950  0.76907976     0.00800
Br542      Br  0.58986745  0.24286492  0.57716963    -0.03100
Br543      Br  0.54722550  0.17294387  0.62958291    -0.03900
Br544      Br  0.68882129  0.18847525  0.65303007     0.00100
C545        C  0.69356318  0.14272742  0.39680150     0.01500
C546        C  0.70721009  0.11763860  0.41943148     0.04300
C547        C  0.70174854  0.11372841  0.46350617    -0.11800
C548        C  0.68534446  0.13680777  0.48699497     0.23600
C549        C  0.67520620  0.16427524  0.46604073    -0.12300
C550        C  0.67918740  0.16732805  0.42106857     0.05000
C551        C  0.67773019  0.13085867  0.53289631     0.27400
C552        C  0.65413518  0.11042279  0.54181126    -0.13000
C553        C  0.65132961  0.09738502  0.58329783     0.05500
C554        C  0.66964471  0.10851909  0.61855812    -0.09000
C555        C  0.69698432  0.12060629  0.60431777     0.06300
C556        C  0.69800003  0.13814082  0.56615256    -0.13300
Br557      Br  0.65447280  0.19669163  0.49906158    -0.05400
Br558      Br  0.73525446  0.08950142  0.39107821     0.00200
Br559      Br  0.63444895  0.05500952  0.58176120     0.00700
Br560      Br  0.73230023  0.16356811  0.55485413    -0.03800
Br561      Br  0.66478148  0.20537341  0.39413408     0.00800
Br562      Br  0.71478610  0.07491864  0.49018401    -0.03100
Br563      Br  0.62690471  0.09841779  0.49586394    -0.03900
Br564      Br  0.72711867  0.08824569  0.59819982     0.00100
C565        C  0.00846104  0.34989346  0.16201075     0.01500
C566        C  0.01051883  0.32055282  0.18586651     0.04300
C567        C  0.03009537  0.29555936  0.17388088    -0.11800
C568        C  0.05131035  0.29998735  0.14234633     0.23600
C569        C  0.05119633  0.32824172  0.11921827    -0.12300
C570        C  0.03002356  0.35249695  0.12776619     0.05000
C571        C  0.07577920  0.27617574  0.13797412     0.27400
C572        C  0.10053759  0.27880714  0.16572714    -0.13000
C573        C  0.12057139  0.25326647  0.16895420     0.05500
C574        C  0.11613312  0.22496277  0.14431282    -0.09000
C575        C  0.09295126  0.22329392  0.11376754     0.06300
C576        C  0.07276420  0.24891144  0.11058125    -0.13300
Br577      Br  0.08137025  0.33344552  0.07617223    -0.05400
Br578      Br  0.99238148  0.31295141  0.23959606     0.00200
Br579      Br  0.15353582  0.25637639  0.20868878     0.00700
Br580      Br  0.04046805  0.24650177  0.06987617    -0.03800
Br581      Br  0.03494486  0.39038394  0.09375026     0.00800
Br582      Br  0.02935330  0.25442002  0.20213914    -0.03100
Br583      Br  0.10654534  0.31699349  0.20059803    -0.03900
Br584      Br  0.08893361  0.18585800  0.07674264     0.00100
C585        C  0.00604940  0.40889208  0.18694616     0.01500
C586        C  0.03685325  0.40448557  0.19591186     0.04300
C587        C  0.05692170  0.42944528  0.19010894    -0.11800
C588        C  0.04676721  0.46097649  0.19035606     0.23600
C589        C  0.01687290  0.46667277  0.19870170    -0.12300
C590        C  0.99648365  0.44081082  0.19793935     0.05000
C591        C  0.06777987  0.48804928  0.18677747     0.27400
C592        C  0.08124663  0.00403060  0.22803385    -0.13000
C593        C  0.10087119  0.02993177  0.22426045     0.05500
C594        C  0.10581423  0.04341261  0.18363127    -0.09000
C595        C  0.09152144  0.03033621  0.14675871     0.06300
C596        C  0.07236979  0.50224779  0.14658609    -0.13300
Br597      Br  0.00409974  0.51037469  0.20878378    -0.05400
Br598      Br  0.05071798  0.37215106  0.23450562     0.00200
Br599      Br  0.12249073  0.04548549  0.27428719     0.00700
Br600      Br  0.05370291  0.48462243  0.09531917    -0.03800
Br601      Br  0.95668579  0.45226635  0.20973397     0.00800
Br602      Br  0.09833296  0.42013883  0.18443986    -0.03100
Br603      Br  0.07447919  0.98560301  0.28358567    -0.03900
Br604      Br  0.09763589  0.04878737  0.09123891     0.00100
C605        C  0.94706809  0.36437301  0.89627825     0.01500
C606        C  0.92118296  0.37117270  0.91952126     0.04300
C607        C  0.92209149  0.37324955  0.96499768    -0.11800
C608        C  0.94882560  0.36803135  0.98727699     0.23600
C609        C  0.97420770  0.35917685  0.96401812    -0.12300
C610        C  0.97345042  0.35788829  0.91867518     0.05000
C611        C  0.95118655  0.37353131  0.03486131     0.27400
C612        C  0.95940851  0.40358710  0.05140974    -0.13000
C613        C  0.96850264  0.40775506  0.09515915     0.05500
C614        C  0.96906716  0.38099103  0.12434512    -0.09000
C615        C  0.95612930  0.35165383  0.10662979     0.06300
C616        C  0.94807950  0.34815063  0.06268698    -0.13300
Br617      Br  0.01022795  0.34923459  0.99437327    -0.05400
Br618      Br  0.88457338  0.37738772  0.88888112     0.00200
Br619      Br  0.98179625  0.45063003  0.10731469     0.00700
Br620      Br  0.93378509  0.30770933  0.03866965    -0.03800
Br621      Br  0.00909072  0.34927535  0.88717049     0.00800
Br622      Br  0.88705638  0.38376459  0.99694597    -0.03100
Br623      Br  0.95934731  0.43883079  0.01140735    -0.03900
Br624      Br  0.95030101  0.31338975  0.13916954     0.00100
C625        C  0.98578217  0.88113179  0.17409382    -0.02300
C626        C  0.65633877  0.61531218  0.66662545    -0.02300
Zn627      Zn  0.68992562  0.59323133  0.27082632     1.49700
Zn628      Zn  0.64805402  0.62519035  0.19915034     1.49400
Zn629      Zn  0.68783772  0.67060335  0.26061362     1.49100
Zn630      Zn  0.71895696  0.62483620  0.18935442     1.49500
O631        O  0.68616432  0.62843112  0.23013950    -1.84000
O632        O  0.65327386  0.56508672  0.26872786    -0.74600
O633        O  0.62291334  0.66491170  0.20817154    -0.74400
O634        O  0.69067882  0.66488900  0.32632607    -0.74000
O635        O  0.62443652  0.58723389  0.21910714    -0.74600
O636        O  0.69279402  0.61199949  0.33145355    -0.74200
O637        O  0.65177790  0.69783217  0.24611332    -0.74800
O638        O  0.74696195  0.66231721  0.19804511    -0.74200
O639        O  0.65444524  0.62124696  0.13447516    -0.75000
O640        O  0.72361050  0.69575238  0.24211800    -0.74400
O641        O  0.70312544  0.62559710  0.12790340    -0.74800
O642        O  0.74300282  0.58381336  0.19660830    -0.74700
O643        O  0.72579461  0.56419970  0.25748032    -0.74500
C644        C  0.62936816  0.56577964  0.24683952     0.77300
C645        C  0.62763017  0.69222758  0.22592675     0.77800
C646        C  0.69263982  0.63988222  0.34918522     0.76700
C647        C  0.74558111  0.68914914  0.21829370     0.77100
C648        C  0.67737704  0.62324484  0.11128130     0.78200
C649        C  0.74380014  0.56295958  0.22602601     0.77300
C650        C  0.69550993  0.62370925  0.78510315     0.86600
C651        C  0.71612763  0.65061202  0.77220176    -0.53600
C652        C  0.72599459  0.64968943  0.73068852     0.09600
C653        C  0.71492542  0.61883666  0.70611597     0.20500
C654        C  0.67110260  0.62282735  0.74928466    -0.54300
C655        C  0.68002085  0.62023318  0.70639441     0.09700
C656        C  0.71220817  0.59293787  0.77549419    -0.53900
C657        C  0.72414630  0.59042719  0.73595980     0.10200
H658        H  0.72356327  0.66844058  0.79582309     0.14700
H659        H  0.72409987  0.61653453  0.67464826     0.00500
H660        H  0.64843819  0.62041792  0.75809811     0.15000
H661        H  0.71674756  0.57546577  0.80010650     0.14800
Zn662      Zn  0.94923215  0.83192034  0.76359236     1.49700
Zn663      Zn  0.91854363  0.87376532  0.69233455     1.49400
Zn664      Zn  0.94984332  0.90922101  0.77290464     1.49100
Zn665      Zn  0.98902092  0.87443913  0.69992775     1.49500
O666        O  0.95193710  0.87236059  0.73249019    -1.84000
O667        O  0.91251661  0.80633676  0.74628520    -0.74600
O668        O  0.89427795  0.91331570  0.70239706    -0.74400
O669        O  0.94675435  0.89399302  0.83424273    -0.74000
O670        O  0.89047663  0.83696894  0.69901614    -0.74600
O671        O  0.94887832  0.84071733  0.82864563    -0.74200
O672        O  0.91472542  0.93771497  0.75945208    -0.74800
O673        O  0.01496188  0.91175510  0.72155362    -0.74200
O674        O  0.93244659  0.87344355  0.63083638    -0.75800
O675        O  0.98655605  0.93678069  0.76972139    -0.74400
O676        O  0.98042931  0.88062832  0.63563116    -0.74800
O677        O  0.01159815  0.83243321  0.70557489    -0.74700
O678        O  0.98390964  0.80364804  0.74912422    -0.74500
C679        C  0.89096959  0.81157493  0.72077845     0.77300
C680        C  0.89481230  0.93616047  0.73020323     0.77800
C681        C  0.94742169  0.86653203  0.85135981     0.76700
C682        C  0.01037960  0.93478421  0.74841921     0.77100
C683        C  0.95704156  0.87801438  0.61269388     0.78200
C684        C  0.00665211  0.80672308  0.72583527     0.77300
C685        C  0.94143437  0.87412154  0.28382454     0.86600
C686        C  0.92386314  0.84455047  0.26693545    -0.53600
C687        C  0.91546991  0.84449214  0.22437117     0.09600
C688        C  0.92553768  0.87547160  0.20218968     0.20500
C689        C  0.96702101  0.87883467  0.25272356    -0.54300
C690        C  0.96045044  0.87746051  0.20946245     0.09700
C691        C  0.92020218  0.90131105  0.27309709    -0.53900
C692        C  0.91032655  0.90197688  0.23120008     0.10200
H693        H  0.91329322  0.82818766  0.28841412     0.14700
H694        H  0.91904434  0.87635969  0.16802901     0.00500
H695        H  0.98933473  0.88228558  0.26471278     0.15000
H696        H  0.91123943  0.91707936  0.29802670     0.14800
C697        C  0.48139170  0.87746293  0.24328692    -0.02300
C698        C  0.15514229  0.62362122  0.73170039    -0.02300
Zn699      Zn  0.21282673  0.63047582  0.22297619     1.49700
Zn700      Zn  0.18620266  0.58991142  0.14377594     1.49400
Zn701      Zn  0.14525531  0.63566971  0.20475624     1.49100
Zn702      Zn  0.19280736  0.66506891  0.13750051     1.49500
O703        O  0.18376251  0.63023649  0.17673202    -1.84000
O704        O  0.24092283  0.59372222  0.21728994    -0.74600
O705        O  0.15038956  0.56314530  0.15556954    -0.74400
O706        O  0.14891001  0.64366018  0.27066584    -0.74000
O707        O  0.22185827  0.56457694  0.16309309    -0.74600
O708        O  0.19513412  0.62888214  0.28129351    -0.74200
O709        O  0.12162868  0.59447912  0.19646009    -0.74800
O710        O  0.15830977  0.69573827  0.13707582    -0.74200
O711        O  0.18886542  0.59721905  0.07880105    -0.75000
O712        O  0.12425788  0.67399799  0.17896539    -0.74400
O713        O  0.19834185  0.64930723  0.07509663    -0.74800
O714        O  0.22848498  0.69062186  0.15887602    -0.74700
O715        O  0.23586471  0.67116418  0.22360857    -0.74500
C716        C  0.24141024  0.56914015  0.19239167     0.77300
C717        C  0.12694173  0.56783913  0.17705838     0.77800
C718        C  0.17040331  0.63773582  0.29610888     0.76700
C719        C  0.13286953  0.69606048  0.15413329     0.77100
C720        C  0.19444407  0.62194895  0.05680487     0.78200
C721        C  0.24149245  0.69184765  0.19551169     0.77300
C722        C  0.19711584  0.62127503  0.61961456     0.86600
C723        C  0.21644985  0.59207908  0.63222347    -0.53600
C724        C  0.22598774  0.59128588  0.67438473     0.09600
C725        C  0.21516516  0.62115832  0.70049355     0.20500
C726        C  0.17240575  0.62361045  0.65260121    -0.54300
C727        C  0.18009444  0.62161031  0.69534565     0.09700
C728        C  0.21719485  0.64917868  0.63221776    -0.53900
C729        C  0.22815008  0.64915247  0.67343590     0.10200
H730        H  0.22695784  0.57664882  0.60860766     0.14700
H731        H  0.22263272  0.62171839  0.73437671     0.00500
H732        H  0.14973644  0.62614282  0.64200351     0.15000
H733        H  0.22478056  0.66606925  0.60857571     0.14800
Zn734      Zn  0.45371507  0.83269229  0.64802774     1.49700
Zn735      Zn  0.41972965  0.87036649  0.72576563     1.49400
Zn736      Zn  0.49068165  0.86818502  0.72407608     1.49100
Zn737      Zn  0.45334709  0.90978080  0.65530394     1.49500
O738        O  0.45442047  0.87004634  0.68822888    -1.84000
O739        O  0.41776253  0.80504753  0.65984318    -0.74600
O740        O  0.43190207  0.87009540  0.78884401    -0.74400
O741        O  0.51550565  0.82862500  0.70936906    -0.74000
O742        O  0.39455084  0.83151114  0.71269929    -0.74600
O743        O  0.49111900  0.80531083  0.65468745    -0.74200
O744        O  0.48090875  0.86875790  0.78854617    -0.74800
O745        O  0.48904475  0.93653267  0.67008106    -0.74200
O746        O  0.39349698  0.90911843  0.71668339    -0.75000
O747        O  0.51642030  0.90649955  0.71272695    -0.74400
O748        O  0.41718320  0.93678302  0.66765668    -0.74800
O749        O  0.45267327  0.90034395  0.59078816    -0.74700
O750        O  0.45073926  0.84713600  0.58542701    -0.74500
C751        C  0.39631875  0.80800867  0.68596580     0.77300
C752        C  0.45656241  0.86941629  0.80884541     0.77800
C753        C  0.51322789  0.80646166  0.68052881     0.76700
C754        C  0.51263110  0.93202564  0.69168687     0.77100
C755        C  0.39530405  0.93325359  0.69245696     0.78200
C756        C  0.45094487  0.87458249  0.56812589     0.77300
C757        C  0.43200335  0.87526750  0.13536419     0.86600
C758        C  0.41668443  0.90663705  0.14907610    -0.53600
C759        C  0.40810970  0.90857821  0.19085119     0.09600
C760        C  0.42000360  0.87974116  0.21773839     0.20500
C761        C  0.45917469  0.87407952  0.16560167    -0.54300
C762        C  0.45438985  0.87816929  0.20921903     0.09700
C763        C  0.41187169  0.84913830  0.15106606    -0.53900
C764        C  0.40586660  0.84967081  0.19427662     0.10200
H765        H  0.41130316  0.92551161  0.12691166     0.14700
H766        H  0.41548640  0.88184701  0.25227201     0.00500
H767        H  0.48114397  0.87234385  0.15291454     0.15000
H768        H  0.40131172  0.83274686  0.12816201     0.14800
C769        C  0.43740486  0.87163498  0.08596730     0.01500
C770        C  0.41762236  0.88549859  0.05546077     0.04300
C771        C  0.42505085  0.88700797  0.01164705    -0.11800
C772        C  0.44946527  0.87012559  0.99572053     0.23600
C773        C  0.46652161  0.85172573  0.02408873    -0.12300
C774        C  0.46017490  0.85166436  0.06872616     0.05000
C775        C  0.45409611  0.86823797  0.94814452     0.27400
C776        C  0.43962126  0.84426995  0.92318075    -0.13000
C777        C  0.44113898  0.84425929  0.87780538     0.05500
C778        C  0.45659943  0.86867297  0.85681692    -0.09000
C779        C  0.47093546  0.89278804  0.88189025     0.06300
C780        C  0.47008647  0.89224471  0.92738846    -0.13300
Br781      Br  0.49806405  0.82576125  0.00097863    -0.05400
Br782      Br  0.37703637  0.89515999  0.06887766     0.00200
Br783      Br  0.42208875  0.81047248  0.84443064     0.00700
Br784      Br  0.48977129  0.92504968  0.96164746    -0.03800
Br785      Br  0.47910118  0.81915250  0.10281010     0.00800
Br786      Br  0.40077976  0.91125377  0.97243964    -0.03100
Br787      Br  0.41660970  0.81214483  0.95135703    -0.03900
Br788      Br  0.48920419  0.92835840  0.85419115     0.00100
C789        C  0.25587162  0.66838223  0.68249356     0.01500
C790        C  0.25901899  0.68978575  0.71840149     0.04300
C791        C  0.28145806  0.71330046  0.71888198    -0.11800
C792        C  0.30211765  0.71427890  0.68527057     0.23600
C793        C  0.30112620  0.69075283  0.65221126    -0.12300
C794        C  0.27890802  0.66730775  0.65164147     0.05000
C795        C  0.32619652  0.73859299  0.68598456     0.27400
C796        C  0.32096372  0.76970791  0.67086946    -0.13000
C797        C  0.34391331  0.79245152  0.67109369     0.05500
C798        C  0.37246304  0.78388228  0.68505229    -0.09000
C799        C  0.37787362  0.75258861  0.69921313     0.06300
C800        C  0.35471216  0.73016450  0.70032473    -0.13300
Br801      Br  0.32999478  0.69120188  0.60681385    -0.05400
Br802      Br  0.23625545  0.68462019  0.76990209     0.00200
Br803      Br  0.33651250  0.83519263  0.65108931     0.00700
Br804      Br  0.36189934  0.68781221  0.72172021    -0.03800
Br805      Br  0.28237509  0.63172861  0.61092705     0.00800
Br806      Br  0.28391433  0.74464087  0.76542383    -0.03100
Br807      Br  0.28248927  0.78084772  0.64893471    -0.03900
Br808      Br  0.41690144  0.74074581  0.71815796     0.00100
C809        C  0.37120940  0.95740948  0.69262059     0.01500
C810        C  0.35740572  0.96613798  0.65353760     0.04300
C811        C  0.33418123  0.98856056  0.65374782    -0.11800
C812        C  0.32368797  0.50120141  0.69415482     0.23600
C813        C  0.33731685  0.99267263  0.73220631    -0.12300
C814        C  0.36138787  0.97129890  0.73187104     0.05000
C815        C  0.29813589  0.52369180  0.69347326     0.27400
C816        C  0.30134244  0.55572187  0.70732621    -0.13000
C817        C  0.27680277  0.57655131  0.70792226     0.05500
C818        C  0.24959171  0.56717973  0.68789679    -0.09000
C819        C  0.24660120  0.53418820  0.67579195     0.06300
C820        C  0.27033290  0.51263410  0.67989772    -0.13300
Br821      Br  0.31428077  0.50028545  0.78649795    -0.05400
Br822      Br  0.36893279  0.94602588  0.59963905     0.00200
Br823      Br  0.28153242  0.61505489  0.74194043     0.00700
Br824      Br  0.26331962  0.96662624  0.67796518    -0.03800
Br825      Br  0.38180180  0.96234151  0.78516915     0.00800
Br826      Br  0.31644940  0.00138098  0.59992486    -0.03100
Br827      Br  0.33997028  0.57120680  0.72444644    -0.03900
Br828      Br  0.20976519  0.51645969  0.65646016     0.00100
C829        C  0.16791274  0.64147485  0.34394026     0.01500
C830        C  0.19219908  0.65419866  0.36772163     0.04300
C831        C  0.19381271  0.65114345  0.41272859    -0.11800
C832        C  0.17026576  0.63756270  0.43501681     0.23600
C833        C  0.14452881  0.62820743  0.41217213    -0.12300
C834        C  0.14340625  0.62976692  0.36666142     0.05000
C835        C  0.17337276  0.63206791  0.48219485     0.27400
C836        C  0.18253927  0.60210244  0.49675787    -0.13000
C837        C  0.18680138  0.59690381  0.54123673     0.05500
C838        C  0.18563108  0.62311651  0.57186277    -0.09000
C839        C  0.17343338  0.65246872  0.55659050     0.06300
C840        C  0.16769214  0.65678295  0.51224988    -0.13300
Br841      Br  0.11128819  0.61232245  0.44352815    -0.05400
Br842      Br  0.22289719  0.67751662  0.33923801     0.00200
Br843      Br  0.18724592  0.55250180  0.55702995     0.00700
Br844      Br  0.15251539  0.69700351  0.49175867    -0.03800
Br845      Br  0.10877611  0.61454251  0.33616403     0.00800
Br846      Br  0.22900692  0.66419257  0.44389783    -0.03100
Br847      Br  0.18942232  0.56798194  0.45475737    -0.03900
Br848      Br  0.16270578  0.68733756  0.59514109     0.00100
C849        C  0.38465416  0.82483851  0.21186478     0.01500
C850        C  0.38364066  0.79350349  0.19199201     0.04300
C851        C  0.35884570  0.77382901  0.19655661    -0.11800
C852        C  0.33497488  0.78427387  0.22144091     0.23600
C853        C  0.33708565  0.81293229  0.24572308    -0.12300
C854        C  0.36229781  0.83262821  0.24262674     0.05000
C855        C  0.30783053  0.76446169  0.22130200     0.27400
C856        C  0.28565009  0.76965714  0.19030203    -0.13000
C857        C  0.26289442  0.74709338  0.18381879     0.05500
C858        C  0.26358127  0.71761389  0.20591752    -0.09000
C859        C  0.28571457  0.71319745  0.23824067     0.06300
C860        C  0.30666055  0.73735854  0.24712204    -0.13300
Br861      Br  0.30423717  0.82571914  0.28136761    -0.05400
Br862      Br  0.41592578  0.77541358  0.15864151     0.00200
Br863      Br  0.23083503  0.75803510  0.14529038     0.00700
Br864      Br  0.33516635  0.73297973  0.29332347    -0.03800
Br865      Br  0.36357928  0.87002362  0.28023538     0.00800
Br866      Br  0.35665651  0.73259240  0.16675386    -0.03100
Br867      Br  0.28740304  0.80729092  0.15533638    -0.03900
Br868      Br  0.29052527  0.67333306  0.26820515     0.00100
C869        C  0.26546956  0.54556395  0.19738630     0.01500
C870        C  0.28186088  0.53554528  0.16106445     0.04300
C871        C  0.30414320  0.01063987  0.16694966    -0.11800
C872        C  0.31000943  0.99731410  0.20753778     0.23600
C873        C  0.29558078  0.51103364  0.24289576    -0.12300
C874        C  0.27254578  0.53336553  0.23846265     0.05000
C875        C  0.33431178  0.97371327  0.21168028     0.27400
C876        C  0.32910212  0.94132273  0.20161891    -0.13000
C877        C  0.35291843  0.92013916  0.19509317     0.05500
C878        C  0.38259268  0.93058322  0.20169340    -0.09000
C879        C  0.38718700  0.96391133  0.20913771     0.06300
C880        C  0.36331623  0.98473203  0.21685074    -0.13300
Br881      Br  0.30507026  0.49370824  0.29848862    -0.05400
Br882      Br  0.27385873  0.55317785  0.10503546     0.00200
Br883      Br  0.34353392  0.87995634  0.16682756     0.00700
Br884      Br  0.37207249  0.53245715  0.23155725    -0.03800
Br885      Br  0.25010565  0.54603860  0.28861851     0.00800
Br886      Br  0.32693053  0.99725191  0.11743347    -0.03100
Br887      Br  0.28890641  0.92688382  0.19319684    -0.03900
Br888      Br  0.42424753  0.98376267  0.19744288     0.00100
C889        C  0.19436548  0.61930675  0.00872692     0.01500
C890        C  0.16793663  0.61149385  0.98663095     0.04300
C891        C  0.16676010  0.61076730  0.94116470    -0.11800
C892        C  0.19179795  0.61867863  0.91696279     0.23600
C893        C  0.21846412  0.62594666  0.93891562    -0.12300
C894        C  0.21977984  0.62611928  0.98461218     0.05000
C895        C  0.18867096  0.62278567  0.86905221     0.27400
C896        C  0.19411792  0.59753117  0.84001934    -0.13000
C897        C  0.18624697  0.59973221  0.79574987     0.05500
C898        C  0.17100807  0.62737600  0.77871427    -0.09000
C899        C  0.16842721  0.65417009  0.80953013     0.06300
C900        C  0.17754522  0.65146338  0.85338676    -0.13300
Br901      Br  0.25280610  0.63664929  0.90615636    -0.05400
Br902      Br  0.13242312  0.60461114  0.01869969     0.00200
Br903      Br  0.19533690  0.56187690  0.76145800     0.00700
Br904      Br  0.17328402  0.68670741  0.89518380    -0.03800
Br905      Br  0.25636700  0.63556421  0.01425279     0.00800
Br906      Br  0.13029080  0.60011703  0.91187403    -0.03100
Br907      Br  0.21143146  0.55892540  0.86266573    -0.03900
Br908      Br  0.14984559  0.69482737  0.80044809     0.00100
C909        C  0.46898648  0.87544496  0.29226802     0.01500
C910        C  0.45443670  0.90310918  0.31138174     0.04300
C911        C  0.44675845  0.90482099  0.35567268    -0.11800
C912        C  0.44867941  0.87777042  0.38106156     0.23600
C913        C  0.45728652  0.84899287  0.36183095    -0.12300
C914        C  0.47205668  0.84879655  0.32194444     0.05000
C915        C  0.44811704  0.88018343  0.42927899     0.27400
C916        C  0.47512349  0.88292927  0.45211136    -0.13000
C917        C  0.47593413  0.88097839  0.49738453     0.05500
C918        C  0.44973781  0.87672149  0.52045658    -0.09000
C919        C  0.42258036  0.87495359  0.49793623     0.06300
C920        C  0.42176053  0.87656089  0.45241349    -0.13300
Br921      Br  0.45102751  0.81009776  0.39368619    -0.05400
Br922      Br  0.44564503  0.94106794  0.28050036     0.00200
Br923      Br  0.51315754  0.88299145  0.52789005     0.00700
Br924      Br  0.38481643  0.87303503  0.42154763    -0.03800
Br925      Br  0.50050276  0.81411989  0.32185256     0.00800
Br926      Br  0.43339864  0.94431832  0.38283100    -0.03100
Br927      Br  0.51130032  0.88883726  0.42109637    -0.03900
Br928      Br  0.38661214  0.87012275  0.52964589     0.00100
C929        C  0.03230294  0.96107431  0.75303184     0.01500
C930        C  0.06016814  0.95609432  0.77236346     0.04300
C931        C  0.08104825  0.98123597  0.77481133    -0.11800
C932        C  0.07486990  0.51093396  0.75543124     0.23600
C933        C  0.04813066  0.51449835  0.73234102    -0.12300
C934        C  0.02519779  0.99153914  0.73726942     0.05000
C935        C  0.09777634  0.53669384  0.75356056     0.27400
C936        C  0.09556404  0.56440389  0.77934061    -0.13000
C937        C  0.11345721  0.59150367  0.77177108     0.05500
C938        C  0.13479180  0.59195793  0.73719678    -0.09000
C939        C  0.13519410  0.56292246  0.71048037     0.06300
C940        C  0.11870092  0.53540006  0.72097601    -0.13300
Br941      Br  0.03989790  0.55345678  0.70247162    -0.05400
Br942      Br  0.06940517  0.91503928  0.79620825     0.00200
Br943      Br  0.10384304  0.62869154  0.80704647     0.00700
Br944      Br  0.12270314  0.49527201  0.68839707    -0.03800
Br945      Br  0.98692130  0.99888306  0.71154684     0.00800
Br946      Br  0.11904395  0.97454219  0.80145583    -0.03100
Br947      Br  0.06674964  0.56472989  0.82500320    -0.03900
Br948      Br  0.14925121  0.55940091  0.65283387     0.00100
C949        C  0.02765394  0.77955071  0.72219230     0.01500
C950        C  0.03591739  0.76723862  0.68123087     0.04300
C951        C  0.05594790  0.74152091  0.67794731    -0.11800
C952        C  0.06776449  0.72786179  0.71548803     0.23600
C953        C  0.05871467  0.73928157  0.75632584    -0.12300
C954        C  0.03883761  0.76507145  0.75973006     0.05000
C955        C  0.09004098  0.70179868  0.71210436     0.27400
C956        C  0.08126066  0.66979292  0.71057151    -0.13000
C957        C  0.10254195  0.64556543  0.70636573     0.05500
C958        C  0.13298369  0.65175286  0.71687659    -0.09000
C959        C  0.14139671  0.68418353  0.70828638     0.06300
C960        C  0.11995002  0.70895512  0.70694935    -0.13300
Br961      Br  0.07344226  0.71936980  0.80773673    -0.05400
Br962      Br  0.01851219  0.78415122  0.62948135     0.00200
Br963      Br  0.09042919  0.61122736  0.66775297     0.00700
Br964      Br  0.13132169  0.75339454  0.70197195    -0.03800
Br965      Br  0.02793875  0.78110056  0.81618509     0.00800
Br966      Br  0.06702493  0.72446036  0.62205835    -0.03100
Br967      Br  0.03990098  0.65904853  0.71074353    -0.03900
Br968      Br  0.18119246  0.69809062  0.70309493     0.00100
C969        C  0.95115541  0.87391101  0.33246108     0.01500
C970        C  0.96035669  0.90300053  0.35368139     0.04300
C971        C  0.96333282  0.90500014  0.39908381    -0.11800
C972        C  0.95843835  0.87798305  0.42412235     0.23600
C973        C  0.95294474  0.84834121  0.40368659    -0.12300
C974        C  0.95091558  0.84578029  0.35832611     0.05000
C975        C  0.95888288  0.88041202  0.47216663     0.27400
C976        C  0.98508399  0.87537203  0.49557802    -0.13000
C977        C  0.98491055  0.87510647  0.54116590     0.05500
C978        C  0.95810949  0.88003602  0.56412404    -0.09000
C979        C  0.93191365  0.88607320  0.53965411     0.06300
C980        C  0.93245920  0.88580706  0.49420797    -0.13300
Br981      Br  0.94832834  0.81091944  0.43890392    -0.05400
Br982      Br  0.97090186  0.94038394  0.32178639     0.00200
Br983      Br  0.02191820  0.86660698  0.57021002     0.00700
Br984      Br  0.89659321  0.89197972  0.46115188    -0.03800
Br985      Br  0.95441113  0.80265949  0.33543809     0.00800
Br986      Br  0.97354532  0.94501581  0.42780696    -0.03100
Br987      Br  0.02114023  0.86773856  0.46435060    -0.03900
Br988      Br  0.89448029  0.89573397  0.56626415     0.00100
C989        C  0.87118968  0.96078513  0.72848779     0.01500
C990        C  0.85655157  0.97106239  0.76642300     0.04300
C991        C  0.83208921  0.48955020  0.76383737    -0.11800
C992        C  0.82041601  0.49882129  0.72371878     0.23600
C993        C  0.83657960  0.99217794  0.68546790    -0.12300
C994        C  0.86171777  0.97258053  0.68820317     0.05000
C995        C  0.79531871  0.52155433  0.72238937     0.27400
C996        C  0.76629850  0.51068731  0.72767406    -0.13000
C997        C  0.74308156  0.53285962  0.73299533     0.05500
C998        C  0.74844547  0.56632498  0.72935297    -0.09000
C999        C  0.77825010  0.57649954  0.72995455     0.06300
C1000       C  0.80115734  0.55450685  0.72291991    -0.13300
Br1001     Br  0.82198075  0.00563745  0.63009439    -0.05400
Br1002     Br  0.86824492  0.95547902  0.82221566     0.00200
Br1003     Br  0.70619471  0.51678989  0.75481153     0.00700
Br1004     Br  0.84126870  0.56944615  0.71787054    -0.03800
Br1005     Br  0.88455368  0.96451310  0.63701521     0.00800
Br1006     Br  0.81442179  0.50548265  0.81655195    -0.03100
Br1007     Br  0.76020315  0.96873790  0.72773438    -0.03900
Br1008     Br  0.78959340  0.61695295  0.75591181     0.00100
C1009       C  0.74648494  0.67615339  0.71499345     0.01500
C1010       C  0.74270192  0.70815345  0.73156863     0.04300
C1011       C  0.76519698  0.73113913  0.72775495    -0.11800
C1012       C  0.79140976  0.72327675  0.70649909     0.23600
C1013       C  0.79382093  0.69368358  0.68466234    -0.12300
C1014       C  0.77119534  0.67060232  0.68734014     0.05000
C1015       C  0.81710565  0.74543845  0.70928221     0.27400
C1016       C  0.82333767  0.76618485  0.67551020    -0.13000
C1017       C  0.84795745  0.78680072  0.67831751     0.05500
C1018       C  0.86591325  0.78807256  0.71637640    -0.09000
C1019       C  0.85917586  0.76695043  0.75034169     0.06300
C1020       C  0.83540939  0.74534570  0.74610114    -0.13300
Br1021     Br  0.82947865  0.68446391  0.65282755    -0.05400
Br1022     Br  0.70608610  0.72256365  0.75726540     0.00200
Br1023     Br  0.85704323  0.81153551  0.62807280     0.00700
Br1024     Br  0.82762429  0.71504928  0.79088844    -0.03800
Br1025     Br  0.77695158  0.63249084  0.65269816     0.00800
Br1026     Br  0.76078790  0.77361672  0.75278914    -0.03100
Br1027     Br  0.79781473  0.76605017  0.62523032    -0.03900
Br1028     Br  0.88080925  0.76772697  0.80441205     0.00100
C1029       C  0.60739953  0.54003107  0.25187112     0.01500
C1030       C  0.61043447  0.51144482  0.22754807     0.04300
C1031       C  0.58453471  0.99020562  0.22014281    -0.11800
C1032       C  0.56290205  0.99128976  0.25258480     0.23600
C1033       C  0.56151178  0.51979397  0.28188610    -0.12300
C1034       C  0.58300001  0.54415799  0.27928598     0.05000
C1035       C  0.54038706  0.96512512  0.25417236     0.27400
C1036       C  0.51602112  0.96552112  0.22653239    -0.13000
C1037       C  0.49930241  0.93733353  0.21798727     0.05500
C1038       C  0.50246901  0.90902038  0.24438205    -0.09000
C1039       C  0.52710840  0.91080855  0.27443657     0.06300
C1040       C  0.54584222  0.93790850  0.27813925    -0.13300
Br1041     Br  0.52832913  0.52511216  0.31967454    -0.05400
Br1042     Br  0.64426784  0.50550261  0.19095081     0.00200
Br1043     Br  0.48059128  0.93942713  0.16233690     0.00700
Br1044     Br  0.58031426  0.93825914  0.31571763    -0.03800
Br1045     Br  0.57915594  0.58319576  0.31307531     0.00800
Br1046     Br  0.58514761  0.95530073  0.17854837    -0.03100
Br1047     Br  0.50714283  0.00551495  0.19836904    -0.03900
Br1048     Br  0.54007315  0.87573703  0.30823148     0.00100
C1049       C  0.60452969  0.71786985  0.22292127     0.01500
C1050       C  0.59967473  0.73952133  0.25794544     0.04300
C1051       C  0.57790954  0.76343566  0.25529177    -0.11800
C1052       C  0.56009628  0.76595490  0.21807451     0.23600
C1053       C  0.56490275  0.74483183  0.18278661    -0.12300
C1054       C  0.58714676  0.72115116  0.18488323     0.05000
C1055       C  0.53833285  0.79278112  0.21512279     0.27400
C1056       C  0.50827320  0.78818916  0.22324059    -0.13000
C1057       C  0.48916255  0.81494979  0.22856193     0.05500
C1058       C  0.50038309  0.84708570  0.22759415    -0.09000
C1059       C  0.52872891  0.84975266  0.20725556     0.06300
C1060       C  0.54806321  0.82337003  0.20478601    -0.13300
Br1061     Br  0.54170090  0.74948839  0.13081609    -0.05400
Br1062     Br  0.62210358  0.73690990  0.31071019     0.00200
Br1063     Br  0.44959939  0.80560129  0.24600809     0.00700
Br1064     Br  0.58828278  0.82863522  0.18590542    -0.03800
Br1065     Br  0.59507879  0.69539348  0.13376573     0.00800
Br1066     Br  0.57333726  0.79369907  0.30261368    -0.03100
Br1067     Br  0.49427242  0.74513738  0.23197091    -0.03900
Br1068     Br  0.54036372  0.88505433  0.17207729     0.00100
C1069       C  0.67412618  0.62357530  0.06375103     0.01500
C1070       C  0.67994670  0.65193399  0.04156462     0.04300
C1071       C  0.67907849  0.65192834  0.99615267    -0.11800
C1072       C  0.67243790  0.62352976  0.97252146     0.23600
C1073       C  0.66579230  0.59535877  0.99476790    -0.12300
C1074       C  0.66637129  0.59546276  0.04031375     0.05000
C1075       C  0.67697249  0.62252129  0.92488706     0.27400
C1076       C  0.65478206  0.63220983  0.89598647    -0.13000
C1077       C  0.66091473  0.63575868  0.85157678     0.05500
C1078       C  0.68859529  0.62610950  0.83446635    -0.09000
C1079       C  0.71146242  0.61928077  0.86530314     0.06300
C1080       C  0.70532449  0.61644032  0.90942391    -0.13300
Br1081     Br  0.65772704  0.55626480  0.96265283    -0.05400
Br1082     Br  0.68925997  0.69084645  0.07356703     0.00200
Br1083     Br  0.63476201  0.66282692  0.81966985     0.00700
Br1084     Br  0.73623799  0.60496512  0.94987937    -0.03800
Br1085     Br  0.65824076  0.55669988  0.07071327     0.00800
Br1086     Br  0.68878893  0.69040488  0.96601398    -0.03100
Br1087     Br  0.61614472  0.64176567  0.91814743    -0.03900
Br1088     Br  0.75261199  0.61686328  0.85022002     0.00100
C1089       C  0.88215702  0.92057585  0.22163175     0.01500
C1090       C  0.85804139  0.91857471  0.25053922     0.04300
C1091       C  0.83488083  0.94113490  0.24959198    -0.11800
C1092       C  0.83433177  0.96511462  0.21847187     0.23600
C1093       C  0.85584197  0.96449053  0.18593232    -0.12300
C1094       C  0.87918805  0.94188799  0.18674452     0.05000
C1095       C  0.81099214  0.99068623  0.22009436     0.27400
C1096       C  0.78419498  0.98686601  0.19701246    -0.13000
C1097       C  0.76378722  0.51154241  0.19306048     0.05500
C1098       C  0.76644059  0.53696362  0.22370112    -0.09000
C1099       C  0.79118654  0.53784646  0.25160278     0.06300
C1100       C  0.81299105  0.51368814  0.24895620    -0.13300
Br1101     Br  0.85322076  0.99505966  0.14032482    -0.05400
Br1102     Br  0.85464695  0.88294283  0.28901979     0.00200
Br1103     Br  0.73045733  0.51032865  0.15403128     0.00700
Br1104     Br  0.84689800  0.51564342  0.28688205    -0.03800
Br1105     Br  0.90423453  0.93849209  0.13722028     0.00800
Br1106     Br  0.80373955  0.93953205  0.29143258    -0.03100
Br1107     Br  0.77767087  0.94856183  0.16242909    -0.03900
Br1108     Br  0.79576550  0.57302330  0.29242413     0.00100
C1109       C  0.89296348  0.81998947  0.20776998     0.01500
C1110       C  0.89595021  0.78745256  0.21985370     0.04300
C1111       C  0.87167858  0.76652850  0.21849465    -0.11800
C1112       C  0.84416535  0.77732494  0.20406529     0.23600
C1113       C  0.84166992  0.80792360  0.18664851    -0.12300
C1114       C  0.86620142  0.82870034  0.18658967     0.05000
C1115       C  0.81800687  0.75610308  0.20663037     0.27400
C1116       C  0.81114953  0.73462228  0.17253069    -0.13000
C1117       C  0.78695161  0.71369437  0.17554356     0.05500
C1118       C  0.77003667  0.71301000  0.21393967    -0.09000
C1119       C  0.77706315  0.73518820  0.24806077     0.06300
C1120       C  0.80060620  0.75688877  0.24386553    -0.13300
Br1121     Br  0.80400739  0.82132911  0.16366471    -0.05400
Br1122     Br  0.93355617  0.76965842  0.23489884     0.00200
Br1123     Br  0.77671920  0.68770623  0.12519876     0.00700
Br1124     Br  0.80961973  0.78785156  0.28938933    -0.03800
Br1125     Br  0.86215440  0.86627947  0.15265253     0.00800
Br1126     Br  0.87570312  0.72292372  0.23738379    -0.03100
Br1127     Br  0.83542137  0.73396446  0.12166411    -0.03900
Br1128     Br  0.75610400  0.73570373  0.30209032     0.00100
C1129       C  0.53600800  0.95712353  0.69200493     0.01500
C1130       C  0.54022692  0.97587114  0.65500770     0.04300
C1131       C  0.56028212  0.00150152  0.65632618    -0.11800
C1132       C  0.57799243  0.50513585  0.69365509     0.23600
C1133       C  0.57465005  0.98828683  0.72961880    -0.12300
C1134       C  0.55378400  0.96330806  0.72923989     0.05000
C1135       C  0.59905317  0.53238016  0.69430467     0.27400
C1136       C  0.62851584  0.52751111  0.68326597    -0.13000
C1137       C  0.64752175  0.55393673  0.67841382     0.05500
C1138       C  0.63684672  0.58616852  0.68245699    -0.09000
C1139       C  0.60878148  0.58951162  0.70405234     0.06300
C1140       C  0.58961170  0.56301348  0.70677400    -0.13300
Br1141     Br  0.59856148  0.49571333  0.78106046    -0.05400
Br1142     Br  0.52037330  0.96569855  0.60082146     0.00200
Br1143     Br  0.68682638  0.54382787  0.66066965     0.00700
Br1144     Br  0.54956657  0.56822239  0.72687669    -0.03800
Br1145     Br  0.54960513  0.93889125  0.78090315     0.00800
Br1146     Br  0.56447191  0.52462191  0.60648609    -0.03100
Br1147     Br  0.64152686  0.98596693  0.67113934    -0.03900
Br1148     Br  0.59459532  0.62791981  0.73355867     0.00100
C1149       C  0.53683013  0.78149220  0.67683983     0.01500
C1150       C  0.55072476  0.77518767  0.63689221     0.04300
C1151       C  0.57185836  0.75042343  0.63278197    -0.11800
C1152       C  0.57947975  0.73162793  0.66851334     0.23600
C1153       C  0.56656796  0.73879830  0.70881799    -0.12300
C1154       C  0.54551085  0.76363068  0.71307025     0.05000
C1155       C  0.59954611  0.70312615  0.66310799     0.27400
C1156       C  0.58839959  0.67403811  0.64658928    -0.13000
C1157       C  0.60686075  0.64669622  0.64210073     0.05500
C1158       C  0.63666286  0.64683718  0.65947693    -0.09000
C1159       C  0.64840297  0.67823883  0.66684682     0.06300
C1160       C  0.62992347  0.70553155  0.67109589    -0.13300
Br1161     Br  0.57724014  0.71389219  0.75812218    -0.05400
Br1162     Br  0.54189275  0.80149824  0.58804189     0.00200
Br1163     Br  0.58814723  0.61073352  0.61318960     0.00700
Br1164     Br  0.64623302  0.74720893  0.68498070    -0.03800
Br1165     Br  0.52760317  0.77199453  0.76840333     0.00800
Br1166     Br  0.59033501  0.74188299  0.57796025    -0.03100
Br1167     Br  0.54675590  0.67171250  0.63221931    -0.03900
Br1168     Br  0.68892383  0.68681855  0.65631665     0.00100
C1169       C  0.69413916  0.64224869  0.39753673     0.01500
C1170       C  0.71010457  0.61883048  0.42024418     0.04300
C1171       C  0.70547290  0.61476283  0.46456669    -0.11800
C1172       C  0.68715607  0.63608740  0.48801825     0.23600
C1173       C  0.67417151  0.66195630  0.46673560    -0.12300
C1174       C  0.67733469  0.66492574  0.42165619     0.05000
C1175       C  0.67936491  0.62920187  0.53362066     0.27400
C1176       C  0.65595461  0.60830040  0.54168247    -0.13000
C1177       C  0.65205083  0.59600657  0.58345427     0.05500
C1178       C  0.66968568  0.60754593  0.61937308    -0.09000
C1179       C  0.69715919  0.61993491  0.60602362     0.06300
C1180       C  0.69861941  0.63734655  0.56779913    -0.13300
Br1181     Br  0.65042985  0.69196989  0.49947186    -0.05400
Br1182     Br  0.73953019  0.59282222  0.39131426     0.00200
Br1183     Br  0.63402467  0.55420614  0.58228850     0.00700
Br1184     Br  0.73243095  0.66389546  0.55810205    -0.03800
Br1185     Br  0.65731732  0.69941959  0.39404796     0.00800
Br1186     Br  0.72221209  0.57779372  0.49150900    -0.03100
Br1187     Br  0.63027142  0.59506524  0.49434661    -0.03900
Br1188     Br  0.72754403  0.58781177  0.60032142     0.00100
C1189       C  0.00871807  0.85167287  0.16654822     0.01500
C1190       C  0.01062298  0.82259467  0.19108730     0.04300
C1191       C  0.02963183  0.79711671  0.17913443    -0.11800
C1192       C  0.05064317  0.80087420  0.14718217     0.23600
C1193       C  0.05101273  0.82902513  0.12383943    -0.12300
C1194       C  0.03029301  0.85374322  0.13228202     0.05000
C1195       C  0.07440045  0.77633504  0.14244837     0.27400
C1196       C  0.09947764  0.77829012  0.16965188    -0.13000
C1197       C  0.11901400  0.75225863  0.17223265     0.05500
C1198       C  0.11369118  0.72411708  0.14758355    -0.09000
C1199       C  0.08981050  0.72284107  0.11821664     0.06300
C1200       C  0.07020723  0.74899422  0.11555330    -0.13300
Br1201     Br  0.08112072  0.83336147  0.08051342    -0.05400
Br1202     Br  0.99375968  0.81604878  0.24603092     0.00200
Br1203     Br  0.15238261  0.75439813  0.21135476     0.00700
Br1204     Br  0.03697915  0.74717464  0.07643951    -0.03800
Br1205     Br  0.03568734  0.89136374  0.09790038     0.00800
Br1206     Br  0.02849620  0.75625361  0.20815741    -0.03100
Br1207     Br  0.10645399  0.81614964  0.20488253    -0.03900
Br1208     Br  0.08392632  0.68513734  0.08223636     0.00100
C1209       C  0.00602615  0.91101277  0.19046113     0.01500
C1210       C  0.03689014  0.90704324  0.19966763     0.04300
C1211       C  0.05666595  0.93239693  0.19449595    -0.11800
C1212       C  0.04613579  0.96377455  0.19488902     0.23600
C1213       C  0.01612030  0.96899844  0.20270841    -0.12300
C1214       C  0.99602569  0.94285499  0.20125336     0.05000
C1215       C  0.06686509  0.99111963  0.19109150     0.27400
C1216       C  0.08284448  0.49995416  0.22372188    -0.13000
C1217       C  0.10211186  0.52618809  0.22053279     0.05500
C1218       C  0.10590681  0.54107783  0.18058701    -0.09000
C1219       C  0.09106477  0.52895216  0.14362862     0.06300
C1220       C  0.07237122  0.00408434  0.15039515    -0.13300
Br1221     Br  0.00280751  0.01248918  0.21302146    -0.05400
Br1222     Br  0.05132770  0.87457095  0.23766293     0.00200
Br1223     Br  0.12463483  0.54052412  0.27034770     0.00700
Br1224     Br  0.05436446  0.98531151  0.09933336    -0.03800
Br1225     Br  0.95594832  0.95395249  0.21159640     0.00800
Br1226     Br  0.09829583  0.92391136  0.18972142    -0.03100
Br1227     Br  0.07730364  0.47990363  0.27852712    -0.03900
Br1228     Br  0.09573863  0.54945102  0.08910557     0.00100
C1229       C  0.94752493  0.86497258  0.89899266     0.01500
C1230       C  0.92184630  0.87221720  0.92251428     0.04300
C1231       C  0.92297336  0.87437692  0.96799694    -0.11800
C1232       C  0.94976477  0.86902916  0.99009268     0.23600
C1233       C  0.97500193  0.86000079  0.96657420    -0.12300
C1234       C  0.97399466  0.85845907  0.92119339     0.05000
C1235       C  0.95228602  0.87454069  0.03774586     0.27400
C1236       C  0.96001240  0.90474979  0.05434932    -0.13000
C1237       C  0.96909439  0.90907408  0.09811318     0.05500
C1238       C  0.96964274  0.88245386  0.12753622    -0.09000
C1239       C  0.95710887  0.85293098  0.10976223     0.06300
C1240       C  0.94953698  0.84913344  0.06564556    -0.13300
Br1241     Br  0.01117480  0.85020620  0.99664694    -0.05400
Br1242     Br  0.88521142  0.87912721  0.89220663     0.00200
Br1243     Br  0.98247194  0.95194138  0.11000217     0.00700
Br1244     Br  0.93628497  0.80829046  0.04157626    -0.03800
Br1245     Br  0.00943400  0.84956050  0.88932960     0.00800
Br1246     Br  0.88812926  0.88521189  0.00020967    -0.03100
Br1247     Br  0.95916962  0.94005713  0.01448005    -0.03900
Br1248     Br  0.95120979  0.81482677  0.14253969     0.00100
loop_ 
_geom_bond_atom_site_label_1 
_geom_bond_atom_site_label_2 
_geom_bond_distance 
_geom_bond_site_symmetry_2 
_ccdc_geom_bond_type 
C1           C66   1.609       .  S
C1          C565   1.628   1_655  S
C1          C585   1.618   1_655  S
C1          C614   1.613       .  S
C2           C31   1.637       .  S
C2          C514   1.594       .  S
C2          C534   1.607       .  S
C2          C554   1.615       .  S
Zn3           O7   1.968       .  S
Zn3           O8   2.042       .  S
Zn3          O12   2.025       .  S
Zn3          O19   2.073       .  S
Zn4           O7   1.976       .  S
Zn4           O9   2.035       .  S
Zn4          O11   2.029       .  S
Zn4          O15   2.037       .  S
Zn5           O7   1.985       .  S
Zn5          O10   2.053       .  S
Zn5          O13   2.040       .  S
Zn5          O16   2.029       .  S
Zn6           O7   1.967       .  S
Zn6          O14   2.022       .  S
Zn6          O17   2.035       .  S
Zn6          O18   2.040       .  S
O8           C20   1.276       .  A
O9           C21   1.274       .  A
O10          C22   1.276       .  A
O11          C20   1.275       .  A
O12          C22   1.277       .  A
O13          C21   1.276       .  A
O14          C23   1.274       .  A
O15          C24   1.275       .  A
O16          C23   1.274       .  A
O17          C24   1.276       .  A
O18          C25   1.275       .  A
O19          C25   1.279       .  A
C20         C405   1.481       .  S
C21         C425   1.494       .  S
C22         C545   1.502       .  S
C23         C494   1.498       .  S
C24         C445   1.483       .  S
C25         C474   1.494       .  S
C26          C27   1.525       .  S
C26          C32   1.519       .  S
C26          C30   1.561       .  S
C26         C454   1.566       .  S
C27          H34   1.084       .  S
C27          C28   1.368       .  D
C28          C29   1.563       .  S
C28         C385   1.534       .  S
C29          C33   1.573       .  S
C29          C31   1.586       .  S
C29          H35   1.067       .  S
C30          H36   1.075       .  S
C30          C31   1.395       .  D
C32          H37   1.086       .  S
C32          C33   1.348       .  D
C33         C374   1.505       .  S
Zn38         O42   1.965       .  S
Zn38         O43   2.029       .  S
Zn38         O47   2.034       .  S
Zn38         O54   2.003       .  S
Zn39         O42   1.948       .  S
Zn39         O44   2.000       .  S
Zn39         O46   2.000       .  S
Zn39         O50   2.010       .  S
Zn40         O42   1.964       .  S
Zn40         O45   2.025       .  S
Zn40         O48   2.036       .  S
Zn40         O51   2.031       .  S
Zn41         O42   1.972       .  S
Zn41         O49   2.042   1_655  S
Zn41         O52   2.054       .  S
Zn41         O53   2.031   1_655  S
O43          C55   1.272       .  A
O44          C56   1.271       .  A
O45          C57   1.275       .  A
O46          C55   1.268       .  A
O47          C57   1.276       .  A
O48          C56   1.275       .  A
O49          C58   1.276       .  A
O50          C59   1.271       .  A
O51          C58   1.275   1_655  A
O52          C59   1.276       .  A
O53          C60   1.276       .  A
O54          C60   1.272   1_655  A
C55         C394   1.501       .  S
C56         C365   1.488       .  S
C57         C605   1.478       .  S
C58         C305   1.481       .  S
C59         C354   1.515       .  S
C60         C325   1.479       .  S
C61          C62   1.550       .  S
C61          C67   1.532       .  S
C61          C65   1.534       .  S
C61         C345   1.569       .  S
C62          H69   1.081       .  S
C62          C63   1.372       .  D
C63          C64   1.550       .  S
C63         C485   1.525       .  S
C64          C68   1.573       .  S
C64          C66   1.600       .  S
C64          H70   1.097       .  S
C65          H71   1.084       .  S
C65          C66   1.372       .  D
C67          H72   1.087       .  S
C67          C68   1.371       .  D
C68         C465   1.527       .  S
C73         C138   1.610       .  S
C73         C285   1.629       .  S
C73         C414   1.628       .  S
C73         C434   1.605       .  S
C74         C103   1.607       .  S
C74         C274   1.624       .  S
C74         C314   1.626       .  S
C74         C334   1.615       .  S
Zn75         O79   1.942       .  S
Zn75         O80   2.009       .  S
Zn75         O84   1.991       .  S
Zn75         O91   2.001       .  S
Zn76         O79   1.955       .  S
Zn76         O81   2.019       .  S
Zn76         O83   2.031       .  S
Zn76         O87   2.052       .  S
Zn77         O79   1.971       .  S
Zn77         O82   2.069       .  S
Zn77         O85   2.039       .  S
Zn77         O88   2.040       .  S
Zn78         O79   1.966       .  S
Zn78         O86   2.026       .  S
Zn78         O89   2.048       .  S
Zn78         O90   2.041       .  S
O80          C92   1.272       .  A
O81          C93   1.275       .  A
O82          C94   1.277       .  A
O83          C92   1.276       .  A
O84          C94   1.270       .  A
O85          C93   1.277       .  A
O86          C95   1.275       .  A
O87          C96   1.278       .  A
O88          C95   1.278       .  A
O89          C96   1.277       .  A
O90          C97   1.276       .  A
O91          C97   1.270       .  A
C92         C245   1.481       .  S
C93         C594   1.480       .  S
C94         C205   1.495       .  S
C95         C574   1.478       .  S
C96         C265   1.494       .  S
C97         C234   1.500       .  S
C98          C99   1.559       .  S
C98         C104   1.522       .  S
C98         C102   1.528       .  S
C98         C214   1.570       .  S
C99         H106   1.080       .  S
C99         C100   1.375       .  D
C100        C101   1.553       .  S
C100        C194   1.530       .  S
C101        C105   1.569       .  S
C101        C103   1.598       .  S
C101        H107   1.101       .  S
C102        H108   1.084       .  S
C102        C103   1.373       .  D
C104        H109   1.087       .  S
C104        C105   1.366       .  D
C105        C165   1.511       .  S
Zn110       O114   1.974       .  S
Zn110       O115   2.044       .  S
Zn110       O119   2.055       .  S
Zn110       O126   2.054       .  S
Zn111       O114   1.964       .  S
Zn111       O116   2.021       .  S
Zn111       O118   2.003       .  S
Zn111       O122   2.029       .  S
Zn112       O114   1.976       .  S
Zn112       O117   2.032       .  S
Zn112       O120   2.042       .  S
Zn112       O123   2.013       .  S
Zn113       O114   1.964       .  S
Zn113       O121   2.014       .  S
Zn113       O124   2.025       .  S
Zn113       O125   2.034       .  S
O115        C127   1.277       .  A
O116        C128   1.274       .  A
O117        C129   1.275       .  A
O118        C127   1.272       .  A
O119        C129   1.278       .  A
O120        C128   1.276       .  A
O121        C130   1.274       .  A
O122        C131   1.273       .  A
O123        C130   1.272       .  A
O124        C131   1.273       .  A
O125        C132   1.275       .  A
O126        C132   1.278       .  A
C127        C174   1.475       .  S
C128        C154   1.484       .  S
C129        C525   1.495       .  S
C130        C505   1.490       .  S
C131        C185   1.491       .  S
C132        C294   1.486       .  S
C133        C134   1.536       .  S
C133        C139   1.515       .  S
C133        C137   1.546       .  S
C133        C145   1.556       .  S
C134        H141   1.084       .  S
C134        C135   1.356       .  D
C135        C136   1.573       .  S
C135        C254   1.513       .  S
C136        C140   1.573       .  S
C136        C138   1.587       .  S
C136        H142   1.095       .  S
C137        H143   1.079       .  S
C137        C138   1.379       .  D
C139        H144   1.084       .  S
C139        C140   1.369       .  D
C140        C225   1.531       .  S
C145        C146   1.431       .  A
C145        C150   1.429       .  A
C146        C147   1.405       .  A
C146       Br158   1.934       .  S
C147        C148   1.401   1_554  A
C147       Br162   1.937   1_554  S
C148        C151   1.489       .  S
C148        C149   1.407   1_556  A
C149        C150   1.416       .  A
C149       Br157   1.931       .  S
C150       Br161   1.935       .  S
C151        C152   1.411       .  A
C151        C156   1.408       .  A
C152        C153   1.408       .  A
C152       Br163   1.931       .  S
C153        C154   1.412       .  A
C153       Br159   1.931       .  S
C154        C155   1.413       .  A
C155        C156   1.410       .  A
C155       Br164   1.925       .  S
C156       Br160   1.929       .  S
C165        C166   1.419       .  A
C165        C170   1.424       .  A
C166        C167   1.413       .  A
C166       Br178   1.927       .  S
C167        C168   1.409       .  A
C167       Br182   1.929       .  S
C168        C171   1.488       .  S
C168        C169   1.404       .  A
C169        C170   1.405       .  A
C169       Br177   1.934       .  S
C170       Br181   1.936       .  S
C171        C172   1.410       .  A
C171        C176   1.411       .  A
C172        C173   1.408       .  A
C172       Br183   1.929       .  S
C173        C174   1.410       .  A
C173       Br179   1.931       .  S
C174        C175   1.409       .  A
C175        C176   1.409       .  A
C175       Br184   1.928       .  S
C176       Br180   1.930       .  S
C185        C186   1.416       .  A
C185        C190   1.416       .  A
C186        C187   1.409       .  A
C186       Br198   1.932       .  S
C187        C812   1.409       .  A
C187       Br202   1.932       .  S
C188        C191   1.495       .  S
C188        C811   1.412   1_545  A
C188        C813   1.412   1_545  A
C189        C190   1.411       .  A
C189        C812   1.410       .  A
C189       Br821   1.931       .  S
C190       Br201   1.932       .  S
C191        C192   1.404       .  A
C191        C196   1.404       .  A
C192        C193   1.411       .  A
C192       Br203   1.934       .  S
C193        C194   1.426       .  A
C193       Br199   1.914       .  S
C194        C195   1.425       .  A
C195        C196   1.412       .  A
C195       Br204   1.914       .  S
C196       Br824   1.935   1_545  S
Br197       C813   1.931   1_545  S
Br200       C820   1.936       .  S
C205        C206   1.418       .  A
C205        C210   1.416       .  A
C206        C207   1.406       .  A
C206       Br218   1.933       .  S
C207        C208   1.406       .  A
C207       Br222   1.932       .  S
C208        C211   1.493       .  S
C208        C209   1.411       .  A
C209        C210   1.415       .  A
C209       Br217   1.929       .  S
C210       Br221   1.928       .  S
C211        C212   1.403       .  A
C211        C216   1.401       .  A
C212        C213   1.414       .  A
C212       Br223   1.936       .  S
C213        C214   1.434       .  A
C213       Br219   1.930       .  S
C214        C215   1.434       .  A
C215        C216   1.413       .  A
C215       Br224   1.929       .  S
C216       Br220   1.934       .  S
C225        C226   1.437       .  A
C225        C230   1.433       .  A
C226        C227   1.404       .  A
C226       Br238   1.946       .  S
C227        C228   1.400       .  A
C227       Br242   1.940       .  S
C228        C231   1.486       .  S
C228        C229   1.403       .  A
C229        C230   1.417       .  A
C229       Br237   1.933       .  S
C230       Br241   1.930       .  S
C231        C232   1.406       .  A
C231        C236   1.403       .  A
C232        C233   1.409       .  A
C232       Br243   1.932       .  S
C233        C234   1.423       .  A
C233       Br239   1.935       .  S
C234        C235   1.426       .  A
C235        C236   1.409       .  A
C235       Br244   1.936       .  S
C236       Br240   1.932       .  S
C245        C246   1.411       .  A
C245        C250   1.416       .  A
C246        C871   1.406       .  A
C246       Br258   1.933       .  S
C247        C248   1.410       .  A
C247        C870   1.405       .  A
C247       Br262   1.932       .  S
C248        C251   1.484       .  S
C248        C873   1.406       .  A
C249        C250   1.410       .  A
C249        C872   1.407   1_545  A
C249       Br257   1.929   1_545  S
C250       Br261   1.931       .  S
C251        C252   1.401       .  A
C251        C256   1.401       .  A
C252        C253   1.409       .  A
C252       Br263   1.937       .  S
C253        C254   1.428       .  A
C253       Br259   1.923       .  S
C254        C255   1.422       .  A
C255        C256   1.408       .  A
C255       Br264   1.919       .  S
C256       Br884   1.933       .  S
Br260       C880   1.934   1_545  S
C265        C266   1.412   1_554  A
C265        C270   1.414   1_554  A
C266        C267   1.411       .  A
C266       Br278   1.926   1_556  S
C267        C268   1.411       .  A
C267       Br282   1.929       .  S
C268        C271   1.504       .  S
C268        C269   1.412       .  A
C269        C270   1.417       .  A
C269       Br277   1.928       .  S
C270       Br281   1.927   1_556  S
C271        C272   1.395       .  A
C271        C276   1.395       .  A
C272        C273   1.420       .  A
C272       Br283   1.937       .  S
C273        C274   1.452       .  A
C273       Br279   1.933       .  S
C274        C275   1.461       .  A
C275        C276   1.425       .  A
C275       Br284   1.921       .  S
C276       Br280   1.952       .  S
C285        C286   1.449       .  A
C285        C290   1.462       .  A
C286        C287   1.421       .  A
C286       Br298   1.910       .  S
C287        C288   1.395       .  A
C287       Br302   1.934       .  S
C288        C291   1.499       .  S
C288        C289   1.388       .  A
C289        C290   1.411       .  A
C289       Br297   1.941       .  S
C290       Br301   1.933       .  S
C291        C292   1.414       .  A
C291        C296   1.411       .  A
C292        C293   1.409       .  A
C292       Br303   1.928       .  S
C293        C294   1.407       .  A
C293       Br299   1.930       .  S
C294        C295   1.413       .  A
C295        C296   1.416       .  A
C295       Br304   1.926       .  S
C296       Br300   1.927       .  S
C305        C306   1.411       .  A
C305        C310   1.407       .  A
C306        C307   1.415       .  A
C306       Br318   1.927       .  S
C307        C932   1.412       .  A
C307       Br322   1.928       .  S
C308        C311   1.500       .  S
C308        C309   1.413       .  A
C308        C931   1.413   1_545  A
C309        C934   1.408   1_545  A
C309       Br317   1.929       .  S
C310        C933   1.406       .  A
C310       Br321   1.933   1_455  S
C311        C312   1.396       .  A
C311        C316   1.395       .  A
C312        C313   1.417       .  A
C312       Br323   1.937       .  S
C313        C314   1.452       .  A
C313       Br319   1.933       .  S
C314        C315   1.454       .  A
C315        C316   1.420       .  A
C315       Br324   1.907       .  S
C316       Br320   1.949   1_545  S
C325        C326   1.413       .  A
C325        C330   1.413       .  A
C326        C327   1.407       .  A
C326       Br338   1.931       .  S
C327        C328   1.408       .  A
C327       Br342   1.931       .  S
C328        C331   1.483       .  S
C328        C329   1.407       .  A
C329        C330   1.406       .  A
C329       Br337   1.929       .  S
C330       Br341   1.929       .  S
C331        C332   1.394       .  A
C331        C336   1.400       .  A
C332        C333   1.403       .  A
C332       Br343   1.932       .  S
C333        C334   1.441       .  A
C333       Br339   1.928       .  S
C334        C335   1.439       .  A
C335        C336   1.419       .  A
C335       Br344   1.908       .  S
C336       Br340   1.938       .  S
C345        C346   1.430       .  A
C345        C350   1.437       .  A
C346        C347   1.414       .  A
C346       Br358   1.929       .  S
C347        C348   1.403       .  A
C347       Br362   1.931       .  S
C348        C351   1.493       .  S
C348        C349   1.400       .  A
C349        C350   1.412       .  A
C349       Br357   1.939       .  S
C350       Br361   1.927       .  S
C351        C352   1.406       .  A
C351        C356   1.402       .  A
C352        C353   1.415       .  A
C352       Br363   1.933   1_655  S
C353        C354   1.429       .  A
C353       Br359   1.935   1_655  S
C354        C355   1.431       .  A
C355        C356   1.410       .  A
C355       Br364   1.936       .  S
C356       Br360   1.937       .  S
C365        C366   1.416       .  A
C365        C370   1.417       .  A
C366        C991   1.408       .  A
C366       Br378   1.932       .  S
C367        C368   1.410   1_565  A
C367        C990   1.409       .  A
C367       Br382   1.933   1_565  S
C368        C371   1.485       .  S
C368        C993   1.405   1_545  A
C369        C370   1.407       .  A
C369        C992   1.404       .  A
C369       Br377   1.930       .  S
C370       Br381   1.929       .  S
C371        C372   1.406       .  A
C371        C376   1.402       .  A
C372        C373   1.411       .  A
C372      Br1007   1.931   1_545  S
C373        C374   1.424       .  A
C373       Br379   1.937       .  S
C374        C375   1.419       .  A
C375        C376   1.404       .  A
C375       Br384   1.924       .  S
C376       Br380   1.934       .  S
Br383       C996   1.931       .  S
C385        C386   1.432       .  A
C385        C390   1.435       .  A
C386        C387   1.408       .  A
C386       Br398   1.939       .  S
C387        C388   1.400       .  A
C387       Br402   1.933       .  S
C388        C391   1.485       .  S
C388        C389   1.400       .  A
C389        C390   1.412       .  A
C389       Br397   1.939       .  S
C390       Br401   1.919       .  S
C391        C392   1.404       .  A
C391        C396   1.405       .  A
C392        C393   1.409       .  A
C392       Br403   1.933       .  S
C393        C394   1.427       .  A
C393       Br399   1.937       .  S
C394        C395   1.424       .  A
C395        C396   1.408       .  A
C395       Br404   1.935       .  S
C396       Br400   1.935       .  S
C405        C406   1.406       .  A
C405        C410   1.412       .  A
C406       C1031   1.407   1_545  A
C406       Br418   1.931       .  S
C407        C408   1.413       .  A
C407       C1030   1.407       .  A
C407       Br422   1.925       .  S
C408        C411   1.498       .  S
C408       C1033   1.412       .  A
C409        C410   1.415       .  A
C409       C1032   1.412   1_545  A
C409       Br417   1.927       .  S
C410       Br421   1.927       .  S
C411        C412   1.394       .  A
C411        C416   1.393       .  A
C412        C413   1.421       .  A
C412       Br423   1.945       .  S
C413        C414   1.460       .  A
C413       Br419   1.920       .  S
C414        C415   1.450       .  A
C415        C416   1.417       .  A
C415       Br424   1.915       .  S
C416       Br420   1.941       .  S
C425        C426   1.412       .  A
C425        C430   1.417       .  A
C426        C427   1.408       .  A
C426       Br438   1.927       .  S
C427        C428   1.411       .  A
C427       Br442   1.923       .  S
C428        C431   1.499       .  S
C428        C429   1.411       .  A
C429        C430   1.415       .  A
C429       Br437   1.929       .  S
C430       Br441   1.930       .  S
C431        C432   1.405       .  A
C431        C436   1.398       .  A
C432        C433   1.423       .  A
C432       Br443   1.932       .  S
C433        C434   1.435       .  A
C433       Br439   1.919       .  S
C434        C435   1.441       .  A
C435        C436   1.409       .  A
C435       Br444   1.929       .  S
C436       Br440   1.934       .  S
C445        C446   1.410       .  A
C445        C450   1.411       .  A
C446        C447   1.409   1_554  A
C446       Br458   1.930       .  S
C447        C448   1.411       .  A
C447       Br462   1.930       .  S
C448        C451   1.495       .  S
C448        C449   1.412       .  A
C449        C450   1.414   1_556  A
C449       Br457   1.927       .  S
C450       Br461   1.928       .  S
C451        C452   1.408       .  A
C451        C456   1.401       .  A
C452        C453   1.419       .  A
C452       Br463   1.928       .  S
C453        C454   1.422       .  A
C453       Br459   1.921       .  S
C454        C455   1.435       .  A
C455        C456   1.407       .  A
C455       Br464   1.932       .  S
C456       Br460   1.939       .  S
C465        C466   1.425       .  A
C465        C470   1.420       .  A
C466        C467   1.415       .  A
C466       Br478   1.934       .  S
C467        C468   1.408       .  A
C467       Br482   1.930       .  S
C468        C471   1.507       .  S
C468        C469   1.411       .  A
C469        C470   1.419       .  A
C469       Br477   1.929       .  S
C470       Br481   1.921       .  S
C471        C472   1.413       .  A
C471       C1100   1.413       .  A
C472       C1097   1.417       .  A
C472       Br483   1.928       .  S
C473        C474   1.412       .  A
C473       C1096   1.416   1_545  A
C473       Br479   1.928       .  S
C474        C475   1.412       .  A
C475        C476   1.415       .  A
C475       Br484   1.928       .  S
C476       C1095   1.413   1_545  A
C476       Br480   1.929       .  S
C485        C486   1.424       .  A
C485        C490   1.428       .  A
C486        C487   1.406       .  A
C486       Br498   1.919       .  S
C487        C488   1.400       .  A
C487       Br502   1.934       .  S
C488        C491   1.485       .  S
C488        C489   1.403       .  A
C489        C490   1.413       .  A
C489       Br497   1.934       .  S
C490       Br501   1.919       .  S
C491        C492   1.405       .  A
C491        C496   1.406       .  A
C492        C493   1.409       .  A
C492       Br503   1.933       .  S
C493        C494   1.423       .  A
C493       Br499   1.934       .  S
C494        C495   1.423       .  A
C495        C496   1.410       .  A
C495       Br504   1.934       .  S
C496       Br500   1.934       .  S
C505        C506   1.416       .  A
C505        C510   1.421       .  A
C506        C507   1.405       .  A
C506       Br518   1.938       .  S
C507       C1132   1.408       .  A
C507      Br1146   1.925       .  S
C508        C511   1.487       .  S
C508       C1131   1.408       .  A
C508       C1133   1.405   1_545  A
C509        C510   1.409       .  A
C509       C1132   1.406       .  A
C509      Br1141   1.933       .  S
C510       Br521   1.929       .  S
C511        C512   1.398       .  A
C511        C516   1.397       .  A
C512        C513   1.413       .  A
C512      Br1147   1.936   1_545  S
C513        C514   1.433       .  A
C513       Br519   1.916       .  S
C514        C515   1.450       .  A
C515        C516   1.413       .  A
C515       Br524   1.941       .  S
C516       Br520   1.938       .  S
Br517      C1133   1.933       .  S
Br522      C1131   1.925       .  S
Br523      C1136   1.937       .  S
C525        C526   1.415       .  A
C525        C530   1.415       .  A
C526        C527   1.413       .  A
C526       Br538   1.929       .  S
C527        C528   1.411       .  A
C527       Br542   1.930       .  S
C528        C531   1.502       .  S
C528        C529   1.411       .  A
C529        C530   1.413       .  A
C529       Br537   1.926       .  S
C530       Br541   1.932       .  S
C531        C532   1.400       .  A
C531        C536   1.401       .  A
C532        C533   1.420       .  A
C532       Br543   1.941       .  S
C533        C534   1.452       .  A
C533       Br539   1.926       .  S
C534        C535   1.428       .  A
C535        C536   1.418       .  A
C535       Br544   1.907       .  S
C536       Br540   1.930       .  S
C545        C546   1.414       .  A
C545        C550   1.422       .  A
C546        C547   1.405       .  A
C546       Br558   1.937       .  S
C547        C548   1.412       .  A
C547       Br562   1.927       .  S
C548        C551   1.494       .  S
C548        C549   1.406       .  A
C549        C550   1.417       .  A
C549       Br557   1.930       .  S
C550       Br561   1.923       .  S
C551        C552   1.403       .  A
C551        C556   1.404       .  A
C552        C553   1.415       .  A
C552       Br563   1.935       .  S
C553        C554   1.436       .  A
C553       Br559   1.929       .  S
C554        C555   1.418       .  A
C555        C556   1.407       .  A
C555       Br564   1.931       .  S
C556       Br560   1.925       .  S
C565        C566   1.448       .  A
C565        C570   1.457       .  A
C566        C567   1.417       .  A
C566       Br578   1.899   1_455  S
C567        C568   1.395       .  A
C567       Br582   1.947       .  S
C568        C571   1.496       .  S
C568        C569   1.395       .  A
C569        C570   1.419       .  A
C569       Br577   1.938       .  S
C570       Br581   1.936       .  S
C571        C572   1.412       .  A
C571        C576   1.411       .  A
C572        C573   1.406       .  A
C572       Br583   1.925       .  S
C573        C574   1.407       .  A
C573       Br579   1.932       .  S
C574        C575   1.410       .  A
C575        C576   1.413       .  A
C575       Br584   1.927       .  S
C576       Br580   1.927       .  S
C585        C586   1.436       .  A
C585        C590   1.437   1_455  A
C586        C587   1.401       .  A
C586       Br598   1.926       .  S
C587        C588   1.395       .  A
C587       Br602   1.929       .  S
C588        C591   1.486       .  S
C588        C589   1.403       .  A
C589        C590   1.423   1_455  A
C589       Br597   1.935       .  S
C590       Br601   1.906       .  S
C591        C596   1.409       .  A
C591       C1216   1.410       .  A
C592        C593   1.409       .  A
C592       C1215   1.410   1_545  A
C592       Br603   1.930   1_545  S
C593        C594   1.411       .  A
C593       Br599   1.928       .  S
C594        C595   1.409       .  A
C595       C1220   1.407       .  A
C595       Br604   1.924       .  S
C596       C1219   1.407       .  A
C596       Br600   1.926       .  S
C605        C606   1.410       .  A
C605        C610   1.408       .  A
C606        C607   1.411       .  A
C606       Br618   1.927       .  S
C607        C608   1.410       .  A
C607       Br622   1.928       .  S
C608        C611   1.491   1_556  S
C608        C609   1.410       .  A
C609        C610   1.406       .  A
C609       Br617   1.929   1_655  S
C610       Br621   1.928   1_655  S
C611        C612   1.395       .  A
C611        C616   1.390       .  A
C612        C613   1.421       .  A
C612       Br623   1.946       .  S
C613        C614   1.454       .  A
C613       Br619   1.918       .  S
C614        C615   1.454       .  A
C615        C616   1.412       .  A
C615       Br624   1.929       .  S
C616       Br620   1.940       .  S
C625        C690   1.607       .  S
C625       C1189   1.626   1_655  S
C625       C1209   1.620   1_655  S
C625       C1238   1.615       .  S
C626        C655   1.638       .  S
C626       C1138   1.594       .  S
C626       C1158   1.609       .  S
C626       C1178   1.617       .  S
Zn627       O631   1.965       .  S
Zn627       O632   2.037       .  S
Zn627       O636   2.024       .  S
Zn627       O643   2.070       .  S
Zn628       O631   1.974       .  S
Zn628       O633   2.030       .  S
Zn628       O635   2.026       .  S
Zn628       O639   2.032       .  S
Zn629       O631   1.982       .  S
Zn629       O634   2.060       .  S
Zn629       O637   2.045       .  S
Zn629       O640   2.029       .  S
Zn630       O631   1.966       .  S
Zn630       O638   2.029       .  S
Zn630       O641   2.031       .  S
Zn630       O642   2.047       .  S
O632        C644   1.275       .  A
O633        C645   1.273       .  A
O634        C646   1.278       .  A
O635        C644   1.274       .  A
O636        C646   1.277       .  A
O637        C645   1.276       .  A
O638        C647   1.274       .  A
O639        C648   1.275       .  A
O640        C647   1.274       .  A
O641        C648   1.276       .  A
O642        C649   1.276       .  A
O643        C649   1.279       .  A
C644       C1029   1.479       .  S
C645       C1049   1.503       .  S
C646       C1169   1.501       .  S
C647       C1118   1.501       .  S
C648       C1069   1.480       .  S
C649       C1098   1.496       .  S
C650        C651   1.525       .  S
C650        C656   1.517       .  S
C650        C654   1.561       .  S
C650       C1078   1.567       .  S
C651        H658   1.085       .  S
C651        C652   1.367       .  D
C652        C653   1.563       .  S
C652       C1009   1.535       .  S
C653        C657   1.575       .  S
C653        C655   1.586       .  S
C653        H659   1.067       .  S
C654        H660   1.073       .  S
C654        C655   1.396       .  D
C656        H661   1.086       .  S
C656        C657   1.347       .  D
C657        C998   1.506       .  S
Zn662       O666   1.968       .  S
Zn662       O667   2.041       .  S
Zn662       O671   2.043       .  S
Zn662       O678   2.016       .  S
Zn663       O666   1.954       .  S
Zn663       O668   2.006       .  S
Zn663       O670   2.012       .  S
Zn663       O674   2.014       .  S
Zn664       O666   1.967       .  S
Zn664       O669   2.025       .  S
Zn664       O672   2.035       .  S
Zn664       O675   2.030       .  S
Zn665       O666   1.975       .  S
Zn665       O673   2.051   1_655  S
Zn665       O676   2.050       .  S
Zn665       O677   2.042   1_655  S
O667        C679   1.274       .  A
O668        C680   1.272       .  A
O669        C681   1.275       .  A
O670        C679   1.270       .  A
O671        C681   1.277       .  A
O672        C680   1.275       .  A
O673        C682   1.277       .  A
O674        C683   1.272       .  A
O675        C682   1.275   1_655  A
O676        C683   1.276       .  A
O677        C684   1.277       .  A
O678        C684   1.274   1_655  A
C679       C1018   1.506       .  S
C680        C989   1.487       .  S
C681       C1229   1.480       .  S
C682        C929   1.486       .  S
C683        C978   1.512       .  S
C684        C949   1.485       .  S
C685        C686   1.549       .  S
C685        C691   1.530       .  S
C685        C689   1.533       .  S
C685        C969   1.568       .  S
C686        H693   1.081       .  S
C686        C687   1.370       .  D
C687        C688   1.550       .  S
C687       C1109   1.524       .  S
C688        C692   1.575       .  S
C688        C690   1.601       .  S
C688        H694   1.098       .  S
C689        H695   1.084       .  S
C689        C690   1.371       .  D
C691        H696   1.087       .  S
C691        C692   1.371       .  D
C692       C1089   1.526       .  S
C697        C762   1.611       .  S
C697        C909   1.629       .  S
C697       C1038   1.629       .  S
C697       C1058   1.603       .  S
C698        C727   1.607       .  S
C698        C898   1.624       .  S
C698        C938   1.627       .  S
C698        C958   1.618       .  S
Zn699       O703   1.939       .  S
Zn699       O704   2.002       .  S
Zn699       O708   1.988       .  S
Zn699       O715   1.996       .  S
Zn700       O703   1.954       .  S
Zn700       O705   2.015       .  S
Zn700       O707   2.027       .  S
Zn700       O711   2.049       .  S
Zn701       O703   1.971       .  S
Zn701       O706   2.069       .  S
Zn701       O709   2.038       .  S
Zn701       O712   2.038       .  S
Zn702       O703   1.963       .  S
Zn702       O710   2.023       .  S
Zn702       O713   2.048       .  S
Zn702       O714   2.037       .  S
O704        C716   1.271       .  A
O705        C717   1.274       .  A
O706        C718   1.277       .  A
O707        C716   1.275       .  A
O708        C718   1.269       .  A
O709        C717   1.277       .  A
O710        C719   1.275       .  A
O711        C720   1.277       .  A
O712        C719   1.278       .  A
O713        C720   1.276       .  A
O714        C721   1.275       .  A
O715        C721   1.268       .  A
C716        C869   1.480       .  S
C717       C1218   1.477       .  S
C718        C829   1.493       .  S
C719       C1198   1.476       .  S
C720        C889   1.492       .  S
C721        C858   1.499       .  S
C722        C723   1.557       .  S
C722        C728   1.522       .  S
C722        C726   1.527       .  S
C722        C838   1.569       .  S
C723        H730   1.079       .  S
C723        C724   1.374       .  D
C724        C725   1.555       .  S
C724        C818   1.532       .  S
C725        C729   1.572       .  S
C725        C727   1.599       .  S
C725        H731   1.101       .  S
C726        H732   1.083       .  S
C726        C727   1.372       .  D
C728        H733   1.087       .  S
C728        C729   1.367       .  D
C729        C789   1.514       .  S
Zn734       O738   1.976       .  S
Zn734       O739   2.040       .  S
Zn734       O743   2.059       .  S
Zn734       O750   2.049       .  S
Zn735       O738   1.967       .  S
Zn735       O740   2.028       .  S
Zn735       O742   2.017       .  S
Zn735       O746   2.032       .  S
Zn736       O738   1.980       .  S
Zn736       O741   2.046       .  S
Zn736       O744   2.052       .  S
Zn736       O747   2.021       .  S
Zn737       O738   1.968       .  S
Zn737       O745   2.012       .  S
Zn737       O748   2.027       .  S
Zn737       O749   2.030       .  S
O739        C751   1.277       .  A
O740        C752   1.275       .  A
O741        C753   1.276       .  A
O742        C751   1.274       .  A
O743        C753   1.279       .  A
O744        C752   1.277       .  A
O745        C754   1.274       .  A
O746        C755   1.274       .  A
O747        C754   1.273       .  A
O748        C755   1.273       .  A
O749        C756   1.274       .  A
O750        C756   1.277       .  A
C751        C798   1.479       .  S
C752        C778   1.489       .  S
C753       C1149   1.499       .  S
C754       C1129   1.492       .  S
C755        C809   1.488       .  S
C756        C918   1.483       .  S
C757        C758   1.537       .  S
C757        C763   1.515       .  S
C757        C761   1.544       .  S
C757        C769   1.558       .  S
C758        H765   1.084       .  S
C758        C759   1.357       .  D
C759        C760   1.573       .  S
C759        C878   1.514       .  S
C760        C764   1.572       .  S
C760        C762   1.587       .  S
C760        H766   1.094       .  S
C761        H767   1.078       .  S
C761        C762   1.379       .  D
C763        H768   1.084       .  S
C763        C764   1.370       .  D
C764        C849   1.529       .  S
C769        C770   1.430       .  A
C769        C774   1.429       .  A
C770        C771   1.406       .  A
C770       Br782   1.934       .  S
C771        C772   1.402   1_554  A
C771       Br786   1.936   1_554  S
C772        C775   1.493       .  S
C772        C773   1.407   1_556  A
C773        C774   1.417       .  A
C773       Br781   1.930       .  S
C774       Br785   1.935       .  S
C775        C776   1.411       .  A
C775        C780   1.409       .  A
C776        C777   1.409       .  A
C776       Br787   1.930       .  S
C777        C778   1.412       .  A
C777       Br783   1.931       .  S
C778        C779   1.414       .  A
C779        C780   1.412       .  A
C779       Br788   1.925       .  S
C780       Br784   1.929       .  S
C789        C790   1.419       .  A
C789        C794   1.424       .  A
C790        C791   1.415       .  A
C790       Br802   1.927       .  S
C791        C792   1.410       .  A
C791       Br806   1.929       .  S
C792        C795   1.492       .  S
C792        C793   1.405       .  A
C793        C794   1.406       .  A
C793       Br801   1.933       .  S
C794       Br805   1.936       .  S
C795        C796   1.411       .  A
C795        C800   1.412       .  A
C796        C797   1.410       .  A
C796       Br807   1.929       .  S
C797        C798   1.411       .  A
C797       Br803   1.931       .  S
C798        C799   1.409       .  A
C799        C800   1.410       .  A
C799       Br808   1.929       .  S
C800       Br804   1.930       .  S
C809        C810   1.414       .  A
C809        C814   1.413       .  A
C810        C811   1.410       .  A
C810       Br822   1.931       .  S
C811       Br826   1.932   1_565  S
C812        C815   1.493       .  S
C813        C814   1.411       .  A
C814       Br825   1.931       .  S
C815        C816   1.403       .  A
C815        C820   1.402       .  A
C816        C817   1.413       .  A
C816       Br827   1.935       .  S
C817        C818   1.428       .  A
C817       Br823   1.915       .  S
C818        C819   1.426       .  A
C819        C820   1.411       .  A
C819       Br828   1.915       .  S
C829        C830   1.417       .  A
C829        C834   1.416       .  A
C830        C831   1.405       .  A
C830       Br842   1.932       .  S
C831        C832   1.405       .  A
C831       Br846   1.932       .  S
C832        C835   1.491       .  S
C832        C833   1.411       .  A
C833        C834   1.415       .  A
C833       Br841   1.929       .  S
C834       Br845   1.928       .  S
C835        C836   1.402       .  A
C835        C840   1.401       .  A
C836        C837   1.412       .  A
C836       Br847   1.937       .  S
C837        C838   1.435       .  A
C837       Br843   1.929       .  S
C838        C839   1.433       .  A
C839        C840   1.412       .  A
C839       Br848   1.929       .  S
C840       Br844   1.934       .  S
C849        C850   1.435       .  A
C849        C854   1.432       .  A
C850        C851   1.404       .  A
C850       Br862   1.945       .  S
C851        C852   1.401       .  A
C851       Br866   1.939       .  S
C852        C855   1.485       .  S
C852        C853   1.403       .  A
C853        C854   1.415       .  A
C853       Br861   1.933       .  S
C854       Br865   1.929       .  S
C855        C856   1.406       .  A
C855        C860   1.402       .  A
C856        C857   1.409       .  A
C856       Br867   1.932       .  S
C857        C858   1.423       .  A
C857       Br863   1.935       .  S
C858        C859   1.427       .  A
C859        C860   1.408       .  A
C859       Br868   1.936       .  S
C860       Br864   1.933       .  S
C869        C870   1.412       .  A
C869        C874   1.416       .  A
C870       Br882   1.933       .  S
C871        C872   1.410   1_545  A
C871       Br886   1.932   1_545  S
C872        C875   1.486       .  S
C873        C874   1.409       .  A
C873       Br881   1.929       .  S
C874       Br885   1.932       .  S
C875        C876   1.401       .  A
C875        C880   1.402       .  A
C876        C877   1.410       .  A
C876       Br887   1.936       .  S
C877        C878   1.428       .  A
C877       Br883   1.922       .  S
C878        C879   1.421       .  A
C879        C880   1.408       .  A
C879       Br888   1.917       .  S
C889        C890   1.411   1_554  A
C889        C894   1.413   1_554  A
C890        C891   1.410       .  A
C890       Br902   1.928   1_556  S
C891        C892   1.412       .  A
C891       Br906   1.928       .  S
C892        C895   1.505       .  S
C892        C893   1.413       .  A
C893        C894   1.418       .  A
C893       Br901   1.927       .  S
C894       Br905   1.927   1_556  S
C895        C896   1.395       .  A
C895        C900   1.395       .  A
C896        C897   1.420       .  A
C896       Br907   1.937       .  S
C897        C898   1.453       .  A
C897       Br903   1.933       .  S
C898        C899   1.461       .  A
C899        C900   1.425       .  A
C899       Br908   1.921       .  S
C900       Br904   1.951       .  S
C909        C910   1.449       .  A
C909        C914   1.466       .  A
C910        C911   1.421       .  A
C910       Br922   1.911       .  S
C911        C912   1.394       .  A
C911       Br926   1.936       .  S
C912        C915   1.497       .  S
C912        C913   1.388       .  A
C913        C914   1.413       .  A
C913       Br921   1.942       .  S
C914       Br925   1.940       .  S
C915        C916   1.413       .  A
C915        C920   1.411       .  A
C916        C917   1.408       .  A
C916       Br927   1.930       .  S
C917        C918   1.407       .  A
C917       Br923   1.930       .  S
C918        C919   1.412       .  A
C919        C920   1.415       .  A
C919       Br928   1.927       .  S
C920       Br924   1.927       .  S
C929        C930   1.412       .  A
C929        C934   1.410       .  A
C930        C931   1.415       .  A
C930       Br942   1.927       .  S
C931       Br946   1.928       .  S
C932        C935   1.499       .  S
C932        C933   1.413       .  A
C933       Br941   1.925       .  S
C934       Br945   1.932   1_455  S
C935        C936   1.396       .  A
C935        C940   1.394       .  A
C936        C937   1.419       .  A
C936       Br947   1.937       .  S
C937        C938   1.452       .  A
C937       Br943   1.932       .  S
C938        C939   1.454       .  A
C939        C940   1.418       .  A
C939       Br948   1.907       .  S
C940       Br944   1.947       .  S
C949        C950   1.414       .  A
C949        C954   1.414       .  A
C950        C951   1.410       .  A
C950       Br962   1.930       .  S
C951        C952   1.409       .  A
C951       Br966   1.930       .  S
C952        C955   1.489       .  S
C952        C953   1.408       .  A
C953        C954   1.408       .  A
C953       Br961   1.928       .  S
C954       Br965   1.929       .  S
C955        C956   1.395       .  A
C955        C960   1.402       .  A
C956        C957   1.404       .  A
C956       Br967   1.931       .  S
C957        C958   1.439       .  A
C957       Br963   1.925       .  S
C958        C959   1.439       .  A
C959        C960   1.422       .  A
C959       Br968   1.907       .  S
C960       Br964   1.937       .  S
C969        C970   1.430       .  A
C969        C974   1.437       .  A
C970        C971   1.414       .  A
C970       Br982   1.930       .  S
C971        C972   1.403       .  A
C971       Br986   1.931       .  S
C972        C975   1.491       .  S
C972        C973   1.400       .  A
C973        C974   1.410       .  A
C973       Br981   1.939       .  S
C974       Br985   1.928       .  S
C975        C976   1.406       .  A
C975        C980   1.402       .  A
C976        C977   1.414       .  A
C976       Br987   1.933   1_655  S
C977        C978   1.428       .  A
C977       Br983   1.935   1_655  S
C978        C979   1.430       .  A
C979        C980   1.410       .  A
C979       Br988   1.935       .  S
C980       Br984   1.936       .  S
C989        C990   1.415       .  A
C989        C994   1.416       .  A
C990      Br1002   1.932       .  S
C991        C992   1.410       .  A
C991      Br1006   1.933       .  S
C992        C995   1.484       .  S
C993        C994   1.407       .  A
C993      Br1001   1.930   1_565  S
C994      Br1005   1.928       .  S
C995        C996   1.406       .  A
C995       C1000   1.402       .  A
C996        C997   1.411       .  A
C997        C998   1.426       .  A
C997      Br1003   1.938       .  S
C998        C999   1.418       .  A
C999       C1000   1.403       .  A
C999      Br1008   1.924       .  S
C1000     Br1004   1.934       .  S
C1009      C1010   1.432       .  A
C1009      C1014   1.434       .  A
C1010      C1011   1.410       .  A
C1010     Br1022   1.940       .  S
C1011      C1012   1.401       .  A
C1011     Br1026   1.932       .  S
C1012      C1015   1.490       .  S
C1012      C1013   1.401       .  A
C1013      C1014   1.413       .  A
C1013     Br1021   1.938       .  S
C1014     Br1025   1.920       .  S
C1015      C1016   1.405       .  A
C1015      C1020   1.406       .  A
C1016      C1017   1.412       .  A
C1016     Br1027   1.933       .  S
C1017      C1018   1.428       .  A
C1017     Br1023   1.936       .  S
C1018      C1019   1.424       .  A
C1019      C1020   1.410       .  A
C1019     Br1028   1.935       .  S
C1020     Br1024   1.935       .  S
C1029      C1030   1.406       .  A
C1029      C1034   1.411       .  A
C1030     Br1042   1.931       .  S
C1031      C1032   1.413       .  A
C1031     Br1046   1.926       .  S
C1032      C1035   1.499       .  S
C1033      C1034   1.414       .  A
C1033     Br1041   1.927       .  S
C1034     Br1045   1.927       .  S
C1035      C1036   1.393       .  A
C1035      C1040   1.393       .  A
C1036      C1037   1.420       .  A
C1036     Br1047   1.943   1_565  S
C1037      C1038   1.459       .  A
C1037     Br1043   1.920       .  S
C1038      C1039   1.450       .  A
C1039      C1040   1.418       .  A
C1039     Br1048   1.910       .  S
C1040     Br1044   1.942       .  S
C1049      C1050   1.417       .  A
C1049      C1054   1.422       .  A
C1050      C1051   1.408       .  A
C1050     Br1062   1.924       .  S
C1051      C1052   1.409       .  A
C1051     Br1066   1.928       .  S
C1052      C1055   1.498       .  S
C1052      C1053   1.409       .  A
C1053      C1054   1.416       .  A
C1053     Br1061   1.930       .  S
C1054     Br1065   1.933       .  S
C1055      C1056   1.404       .  A
C1055      C1060   1.397       .  A
C1056      C1057   1.423       .  A
C1056     Br1067   1.933       .  S
C1057      C1058   1.437       .  A
C1057     Br1063   1.924       .  S
C1058      C1059   1.444       .  A
C1059      C1060   1.410       .  A
C1059     Br1068   1.930       .  S
C1060     Br1064   1.937       .  S
C1069      C1070   1.409       .  A
C1069      C1074   1.410       .  A
C1070      C1071   1.408   1_554  A
C1070     Br1082   1.930       .  S
C1071      C1072   1.412       .  A
C1071     Br1086   1.930       .  S
C1072      C1075   1.493       .  S
C1072      C1073   1.411       .  A
C1073      C1074   1.412   1_556  A
C1073     Br1081   1.927       .  S
C1074     Br1085   1.929       .  S
C1075      C1076   1.407       .  A
C1075      C1080   1.399       .  A
C1076      C1077   1.419       .  A
C1076     Br1087   1.929       .  S
C1077      C1078   1.424       .  A
C1077     Br1083   1.922       .  S
C1078      C1079   1.437       .  A
C1079      C1080   1.407       .  A
C1079     Br1088   1.932       .  S
C1080     Br1084   1.940       .  S
C1089      C1090   1.425       .  A
C1089      C1094   1.422       .  A
C1090      C1091   1.412       .  A
C1090     Br1102   1.935       .  S
C1091      C1092   1.406       .  A
C1091     Br1106   1.930       .  S
C1092      C1095   1.505       .  S
C1092      C1093   1.411       .  A
C1093      C1094   1.420       .  A
C1093     Br1101   1.929       .  S
C1094     Br1105   1.923       .  S
C1095      C1096   1.413       .  A
C1096     Br1107   1.928       .  S
C1097      C1098   1.414       .  A
C1097     Br1103   1.928       .  S
C1098      C1099   1.411       .  A
C1099      C1100   1.415       .  A
C1099     Br1108   1.928       .  S
C1100     Br1104   1.929       .  S
C1109      C1110   1.424       .  A
C1109      C1114   1.427       .  A
C1110      C1111   1.406       .  A
C1110     Br1122   1.919       .  S
C1111      C1112   1.401       .  A
C1111     Br1126   1.934       .  S
C1112      C1115   1.486       .  S
C1112      C1113   1.403       .  A
C1113      C1114   1.412       .  A
C1113     Br1121   1.934       .  S
C1114     Br1125   1.917       .  S
C1115      C1116   1.404       .  A
C1115      C1120   1.405       .  A
C1116      C1117   1.409       .  A
C1116     Br1127   1.933       .  S
C1117      C1118   1.424       .  A
C1117     Br1123   1.935       .  S
C1118      C1119   1.425       .  A
C1119      C1120   1.411       .  A
C1119     Br1128   1.935       .  S
C1120     Br1124   1.934       .  S
C1129      C1130   1.418       .  A
C1129      C1134   1.421       .  A
C1130      C1131   1.405   1_565  A
C1130     Br1142   1.938       .  S
C1132      C1135   1.486       .  S
C1133      C1134   1.409       .  A
C1134     Br1145   1.929       .  S
C1135      C1136   1.398       .  A
C1135      C1140   1.397       .  A
C1136      C1137   1.413       .  A
C1137      C1138   1.434       .  A
C1137     Br1143   1.917       .  S
C1138      C1139   1.451       .  A
C1139      C1140   1.413       .  A
C1139     Br1148   1.942       .  S
C1140     Br1144   1.938       .  S
C1149      C1150   1.415       .  A
C1149      C1154   1.415       .  A
C1150      C1151   1.415       .  A
C1150     Br1162   1.930       .  S
C1151      C1152   1.412       .  A
C1151     Br1166   1.929       .  S
C1152      C1155   1.506       .  S
C1152      C1153   1.412       .  A
C1153      C1154   1.415       .  A
C1153     Br1161   1.926       .  S
C1154     Br1165   1.931       .  S
C1155      C1156   1.401       .  A
C1155      C1160   1.402       .  A
C1156      C1157   1.422       .  A
C1156     Br1167   1.940       .  S
C1157      C1158   1.451       .  A
C1157     Br1163   1.926       .  S
C1158      C1159   1.429       .  A
C1159      C1160   1.420       .  A
C1159     Br1168   1.907       .  S
C1160     Br1164   1.930       .  S
C1169      C1170   1.414       .  A
C1169      C1174   1.421       .  A
C1170      C1171   1.406       .  A
C1170     Br1182   1.936       .  S
C1171      C1172   1.413       .  A
C1171     Br1186   1.925       .  S
C1172      C1175   1.495       .  S
C1172      C1173   1.405       .  A
C1173      C1174   1.415       .  A
C1173     Br1181   1.931       .  S
C1174     Br1185   1.917       .  S
C1175      C1176   1.404       .  A
C1175      C1180   1.403       .  A
C1176      C1177   1.417       .  A
C1176     Br1187   1.937       .  S
C1177      C1178   1.440       .  A
C1177     Br1183   1.928       .  S
C1178      C1179   1.419       .  A
C1179      C1180   1.406       .  A
C1179     Br1188   1.931       .  S
C1180     Br1184   1.924       .  S
C1189      C1190   1.450       .  A
C1189      C1194   1.456       .  A
C1190      C1191   1.415       .  A
C1190     Br1202   1.900   1_455  S
C1191      C1192   1.393       .  A
C1191     Br1206   1.948       .  S
C1192      C1195   1.494       .  S
C1192      C1193   1.395       .  A
C1193      C1194   1.418       .  A
C1193     Br1201   1.937       .  S
C1194     Br1205   1.935       .  S
C1195      C1196   1.412       .  A
C1195      C1200   1.411       .  A
C1196      C1197   1.406       .  A
C1196     Br1207   1.927       .  S
C1197      C1198   1.408       .  A
C1197     Br1203   1.932       .  S
C1198      C1199   1.409       .  A
C1199      C1200   1.412       .  A
C1199     Br1208   1.927       .  S
C1200     Br1204   1.927       .  S
C1209      C1210   1.438       .  A
C1209      C1214   1.439   1_455  A
C1210      C1211   1.402       .  A
C1210     Br1222   1.927       .  S
C1211      C1212   1.395       .  A
C1211     Br1226   1.929       .  S
C1212      C1215   1.488       .  S
C1212      C1213   1.403       .  A
C1213      C1214   1.423   1_455  A
C1213     Br1221   1.935   1_565  S
C1214     Br1225   1.906       .  S
C1215      C1220   1.409   1_565  A
C1216      C1217   1.408       .  A
C1216     Br1227   1.930       .  S
C1217      C1218   1.410       .  A
C1217     Br1223   1.928       .  S
C1218      C1219   1.408       .  A
C1219     Br1228   1.926       .  S
C1220     Br1224   1.926   1_545  S
C1229      C1230   1.410       .  A
C1229      C1234   1.409       .  A
C1230      C1231   1.412       .  A
C1230     Br1242   1.927       .  S
C1231      C1232   1.410       .  A
C1231     Br1246   1.928   1_556  S
C1232      C1235   1.494   1_556  S
C1232      C1233   1.411       .  A
C1233      C1234   1.408       .  A
C1233     Br1241   1.929   1_655  S
C1234     Br1245   1.928   1_655  S
C1235      C1236   1.396       .  A
C1235      C1240   1.390       .  A
C1236      C1237   1.422       .  A
C1236     Br1247   1.946       .  S
C1237      C1238   1.454       .  A
C1237     Br1243   1.918       .  S
C1238      C1239   1.453       .  A
C1239      C1240   1.413       .  A
C1239     Br1248   1.928       .  S
C1240     Br1244   1.940       .  S
