geometry optimzed in LAMMPS
_audit_creation_date              2020-11-30 
_audit_creation_method            'lammps2cif' 
_symmetry_space_group_name_H-M    'P1' 
_symmetry_Int_Tables_number       1 
_symmetry_cell_setting            triclinic 
loop_ 
_symmetry_equiv_pos_as_xyz 
  x,y,z 
_cell_length_a                    37.31701245 
_cell_length_b                    37.70852501797298 
_cell_length_c                    51.73565531250997 
_cell_angle_alpha                 90.02733388333253 
_cell_angle_beta                  90.02459794624409 
_cell_angle_gamma                 89.98623656251311 
loop_ 
_atom_site_label 
_atom_site_type_symbol 
_atom_site_fract_x 
_atom_site_fract_y 
_atom_site_fract_z 
_atom_site_charge 
In1        In  0.91880249  0.41692223  0.57476373     1.36900
C2          C  0.93068760  0.37695400  0.61617517     0.78600
O3          O  0.97006975  0.41899418  0.55206479    -0.59800
O4          O  0.96945911  0.44080338  0.58979428    -0.50700
C5          C  0.88295526  0.38389579  0.53672111     0.71300
O6          O  0.86697617  0.40283731  0.55324886    -0.45600
C7          C  0.89786744  0.48417106  0.57330478     0.76000
O8          O  0.90678268  0.40072350  0.61661751    -0.57400
O9          O  0.91618452  0.46935145  0.55593609    -0.47500
O10         O  0.94323697  0.37057840  0.59414572    -0.53900
C11         C  0.98778419  0.43311901  0.57013515     0.86200
O12         O  0.91568159  0.37938620  0.54142511    -0.55800
O13         O  0.88791880  0.46362556  0.59129983    -0.59100
C14         C  0.83912380  0.47066301  0.79622241     0.87500
C15         C  0.86189432  0.45688310  0.77369718    -0.52700
C16         C  0.87119098  0.42209327  0.77544517     0.10500
C17         C  0.85667932  0.40349714  0.80005367     0.21400
C18         C  0.80660589  0.44531722  0.79659865    -0.53400
C19         C  0.81563099  0.40997718  0.79913043     0.10600
C20         C  0.85962555  0.46092019  0.82071053    -0.52900
C21         C  0.86922950  0.42639568  0.82297144     0.11100
H22         H  0.86950505  0.47330067  0.75733080     0.15700
H23         H  0.86515469  0.37549704  0.80208569     0.01400
H24         H  0.77909770  0.45367108  0.79452333     0.16000
H25         H  0.86616320  0.48056337  0.83537292     0.15800
C26         C  0.64659843  0.27349246  0.79624454     0.87500
C27         C  0.65506844  0.25052777  0.81967506    -0.52700
C28         C  0.69042753  0.24361103  0.82351557     0.10500
C29         C  0.71488473  0.26015467  0.80274341     0.21400
C30         C  0.67001409  0.30708810  0.79956237    -0.53400
C31         C  0.70592858  0.30009888  0.80290468     0.10600
C32         C  0.66435939  0.25450669  0.77330931    -0.52900
C33         C  0.70010654  0.24769192  0.77617449     0.11100
H34         H  0.63429775  0.24112137  0.83271687     0.15700
H35         H  0.74351769  0.25428656  0.80630714     0.01400
H36         H  0.66003855  0.33383749  0.79699185     0.16000
H37         H  0.64963503  0.24764936  0.75593962     0.15800
C38         C  0.80809874  0.13395915  0.66924798     0.87500
C39         C  0.78451615  0.14245177  0.64598847    -0.52700
C40         C  0.77449178  0.17694936  0.64370565     0.10500
C41         C  0.79007174  0.20092030  0.66503461     0.21400
C42         C  0.84035047  0.15906423  0.66625563    -0.53400
C43         C  0.83082615  0.19413572  0.66413943     0.10600
C44         C  0.78808383  0.14898709  0.69277045    -0.52900
C45         C  0.77862737  0.18382687  0.69085244     0.11100
H46         H  0.77553466  0.12199018  0.63264854     0.15700
H47         H  0.78265384  0.22930240  0.66324590     0.01400
H48         H  0.86816482  0.15107264  0.66669277     0.16000
H49         H  0.78170830  0.13293615  0.70958868     0.15800
C50         C  0.99577920  0.33342010  0.66375647     0.87500
C51         C  0.98148794  0.35386362  0.68730720    -0.52700
C52         C  0.94545002  0.36056148  0.68713186     0.10500
C53         C  0.92655341  0.34573174  0.66271728     0.21400
C54         C  0.97250576  0.29947389  0.66339150    -0.53400
C55         C  0.93629707  0.30607906  0.66285654     0.10600
C56         C  0.98271832  0.35403110  0.64003201    -0.52900
C57         C  0.94680960  0.36037887  0.63928713     0.11100
H58         H  0.99867586  0.36024774  0.70356304     0.15700
H59         H  0.89743599  0.35124030  0.66158704     0.01400
H60         H  0.98245090  0.27262130  0.66336811     0.16000
H61         H  0.00063651  0.36233794  0.62460927     0.15800
In62       In  0.71243657  0.19067736  0.89227810     1.36900
C63         C  0.70151592  0.22342755  0.84682337     0.78600
O64         O  0.73912484  0.14686065  0.86932194    -0.59800
O65         O  0.72523053  0.13765749  0.90851467    -0.50700
C66         C  0.74738760  0.22117650  0.93158578     0.71300
O67         O  0.76217094  0.19873373  0.91700542    -0.45600
C68         C  0.64546368  0.18204625  0.90920389     0.76000
O69         O  0.73130842  0.22610433  0.85837689    -0.57400
O70         O  0.66446667  0.15681647  0.90097251    -0.47500
O71         O  0.67962921  0.20324845  0.85783992    -0.53900
C72         C  0.73810490  0.12515212  0.88793079     0.86200
O73         O  0.71731903  0.23152334  0.92357899    -0.55800
O74         O  0.66151370  0.21144221  0.90996363    -0.59100
In75       In  0.69844875  0.19542357  0.58732081     1.36900
C76         C  0.74915404  0.18690195  0.62302054     0.78600
O77         O  0.65787521  0.23976446  0.59191907    -0.59800
O78         O  0.65165230  0.19288196  0.61397618    -0.50700
C79         C  0.71652265  0.22513772  0.54265346     0.71300
O80         O  0.68539824  0.21411688  0.54759369    -0.45600
C81         C  0.68318370  0.12928824  0.57237067     0.76000
O82         O  0.73244612  0.21595781  0.62136734    -0.57400
O83         O  0.66412730  0.14631133  0.58814492    -0.47500
O84         O  0.74114940  0.16476640  0.60588288    -0.53900
C85         C  0.63835809  0.22213026  0.60720350     0.86200
O86         O  0.73802871  0.22398152  0.56149609    -0.55800
O87         O  0.70888612  0.14688577  0.56328344    -0.59100
In88       In  0.93001329  0.40570611  0.88815433     1.36900
C89         C  0.88910994  0.41528935  0.84638824     0.78600
O90         O  0.93051021  0.45295518  0.91435850    -0.59800
O91         O  0.96014779  0.45629889  0.87965368    -0.50700
C92         C  0.89600280  0.37400168  0.92712200     0.71300
O93         O  0.91787649  0.35738926  0.91299302    -0.45600
C94         C  0.99633843  0.38083951  0.88661681     0.76000
O95         O  0.90527287  0.38615651  0.84962980    -0.57400
O96         O  0.98163466  0.39298686  0.90663174    -0.47500
O97         O  0.89230253  0.43654545  0.86489179    -0.53900
C98         C  0.94990563  0.47180801  0.89996243     0.86200
O99         O  0.88782013  0.40414208  0.91862484    -0.55800
O100        O  0.97617730  0.37952492  0.86696672    -0.59100
C101        C  0.83038806  0.46494905  0.16515887     0.87500
C102        C  0.85306841  0.45766411  0.14107312    -0.52700
C103        C  0.86146190  0.42289710  0.13691983     0.10500
C104        C  0.84639343  0.39790009  0.15774771     0.21400
C105        C  0.79732120  0.44084857  0.16187365    -0.53400
C106        C  0.80575411  0.40562661  0.15837526     0.10600
C107        C  0.85060572  0.44735268  0.18764976    -0.52900
C108        C  0.85950093  0.41285743  0.18367612     0.11100
H109        H  0.86211493  0.47882661  0.12839349     0.15700
H110        H  0.85347921  0.36955063  0.15500645     0.01400
H111        H  0.76989133  0.44958553  0.16408472     0.16000
H112        H  0.85659660  0.46087062  0.20570521     0.15800
C113        C  0.64626363  0.26296170  0.17550980     0.87500
C114        C  0.66384360  0.24540022  0.19907816    -0.52700
C115        C  0.69965690  0.23882037  0.19651522     0.10500
C116        C  0.71531443  0.25120596  0.17028525     0.21400
C117        C  0.66889503  0.29676777  0.17178215    -0.53400
C118        C  0.70484322  0.29057231  0.16896632     0.10600
C119        C  0.65616634  0.23915133  0.15260758    -0.52900
C120        C  0.69199757  0.23340379  0.14934063     0.11100
H121        H  0.64928276  0.23928002  0.21668755     0.15700
H122        H  0.74447305  0.24608921  0.16817560     0.01400
H123        H  0.65853790  0.32351465  0.17255113     0.16000
H124        H  0.63620632  0.22914616  0.13913861     0.15800
C125        C  0.79911292  0.11944523  0.30333777     0.87500
C126        C  0.78156238  0.13682672  0.27969393    -0.52700
C127        C  0.77400782  0.17206813  0.28229516     0.10500
C128        C  0.78646917  0.18763850  0.30849658     0.21400
C129        C  0.83310227  0.14182235  0.30748991    -0.53400
C130        C  0.82657734  0.17739439  0.31012315     0.10600
C131        C  0.77487794  0.12911281  0.32611793    -0.52900
C132        C  0.76814473  0.16445039  0.32914320     0.11100
H133        H  0.77526695  0.12211979  0.26221017     0.15700
H134        H  0.78086281  0.21641157  0.31057750     0.01400
H135        H  0.86017091  0.13169837  0.30716896     0.16000
H136        H  0.76394675  0.10910229  0.33902793     0.15800
C137        C  0.92634369  0.34667658  0.27317684     0.87500
C138        C  0.91028806  0.30998525  0.27770947    -0.52700
C139        C  0.92093599  0.29405011  0.29994662     0.10500
C140        C  0.94759080  0.31586677  0.31597501     0.21400
C141        C  0.91785445  0.36782759  0.29802365    -0.53400
C142        C  0.92819863  0.35154324  0.32045203     0.10600
C143        C  0.96712659  0.34095759  0.27479119    -0.52900
C144        C  0.97843074  0.32423994  0.29680219     0.11100
H145        H  0.89080087  0.29798692  0.26473722     0.15700
H146        H  0.95623249  0.30233684  0.33398625     0.01400
H147        H  0.90436789  0.39331022  0.29783569     0.16000
H148        H  0.98632141  0.35060891  0.26086069     0.15800
In149      In  0.71422415  0.18942039  0.07780337     1.36900
C150        C  0.70457504  0.21538130  0.12552406     0.78600
O151        O  0.66229491  0.21586640  0.06695108    -0.59800
O152        O  0.66498541  0.15987637  0.06564870    -0.50700
C153        C  0.74907403  0.22084528  0.03875589     0.71300
O154        O  0.71896036  0.23084955  0.04689508    -0.45600
C155        C  0.73738398  0.12292249  0.07841260     0.76000
O156        O  0.73082730  0.22527561  0.11178512    -0.57400
O157        O  0.72104965  0.13662833  0.05957651    -0.47500
O158        O  0.68646070  0.19076465  0.11575513    -0.53900
C159        C  0.64575929  0.18714676  0.06325614     0.86200
O160        O  0.76406989  0.19828587  0.05314685    -0.55800
O161        O  0.74380270  0.14401642  0.09687280    -0.59100
In162      In  0.91905240  0.40042624  0.39261503     1.36900
C163        C  0.92172352  0.36748204  0.34632077     0.78600
O164        O  0.88661855  0.44775591  0.37958484    -0.59800
O165        O  0.92005191  0.45263859  0.41269128    -0.50700
C166        C  0.88003140  0.37269176  0.43120474     0.71300
O167        O  0.86708986  0.39500557  0.41564227    -0.45600
C168        C  0.98912191  0.40859077  0.40141428     0.76000
O169        O  0.92798224  0.35168013  0.36724807    -0.57400
O170        O  0.97229083  0.42585116  0.38451434    -0.47500
O171        O  0.91052414  0.39866637  0.34929284    -0.53900
C172        C  0.89861906  0.46766742  0.39729913     0.86200
O173        O  0.91001710  0.36072451  0.42430768    -0.55800
O174        O  0.96981921  0.38763888  0.41421486    -0.59100
In175      In  0.93031783  0.40239375  0.07567335     1.36900
C176        C  0.88396856  0.41269228  0.11449315     0.78600
O177        O  0.97251002  0.37366026  0.09951629    -0.59800
O178        O  0.98204951  0.38336964  0.05979722    -0.50700
C179        C  0.89727337  0.37499186  0.03450117     0.71300
O180        O  0.91474971  0.35585502  0.05006066    -0.45600
C181        C  0.95580703  0.46748725  0.06826619     0.76000
O182        O  0.89854929  0.38275061  0.11111274    -0.57400
O183        O  0.95985398  0.45067983  0.08912268    -0.47500
O184        O  0.89129794  0.43501854  0.09733054    -0.53900
C185        C  0.99410322  0.37141161  0.08076900     0.86200
O186        O  0.89335044  0.40652067  0.04189779    -0.55800
O187        O  0.94063550  0.44997012  0.05064669    -0.59100
In188      In  0.70498452  0.18803003  0.39299980     1.36900
C189        C  0.74477046  0.17627715  0.35068668     0.78600
O190        O  0.72229027  0.13872801  0.41363452    -0.59800
O191        O  0.67041339  0.13980682  0.39715708    -0.50700
C192        C  0.72999422  0.22193919  0.43458455     0.71300
O193        O  0.70853675  0.23623421  0.41889482    -0.45600
C194        C  0.63885369  0.21200019  0.38492038     0.76000
O195        O  0.74474240  0.20659710  0.36126957    -0.57400
O196        O  0.64972612  0.19988505  0.40620450    -0.47500
O197        O  0.72374569  0.15456495  0.36092138    -0.53900
C198        C  0.69387796  0.12190420  0.40881536     0.86200
O199        O  0.74312061  0.19323027  0.42657145    -0.55800
O200        O  0.66251667  0.21339939  0.36743271    -0.59100
C201        C  0.93784665  0.74763665  0.70422348     0.87500
C202        C  0.92005001  0.78376839  0.70102990    -0.52700
C203        C  0.92987812  0.80177427  0.67945651     0.10500
C204        C  0.95765583  0.78224159  0.66270428     0.21400
C205        C  0.93055800  0.72785317  0.67866646    -0.53400
C206        C  0.93997433  0.74616466  0.65696018     0.10600
C207        C  0.97833878  0.75525082  0.70300278    -0.52900
C208        C  0.98899892  0.77348744  0.68141927     0.11100
H209        H  0.89972550  0.79365260  0.71426371     0.15700
H210        H  0.96565579  0.79724078  0.64517241     0.01400
H211        H  0.91852088  0.70165767  0.67785195     0.16000
H212        H  0.99783615  0.74462050  0.71637934     0.15800
C213        C  0.80961021  0.97783601  0.66872483     0.87500
C214        C  0.78945990  0.96219279  0.69199237    -0.52700
C215        C  0.78006637  0.92731060  0.68971782     0.10500
C216        C  0.79332890  0.91054533  0.66399871     0.21400
C217        C  0.84252705  0.95363902  0.66623649    -0.53400
C218        C  0.83407889  0.91839996  0.66392837     0.10600
C219        C  0.78687033  0.96893503  0.64509716    -0.52900
C220        C  0.77795802  0.93418365  0.64239640     0.11100
H221        H  0.78431037  0.97766352  0.70927893     0.15700
H222        H  0.78636455  0.88217408  0.66150608     0.01400
H223        H  0.87005120  0.96225355  0.66784849     0.16000
H224        H  0.77802750  0.98925066  0.63160459     0.15800
C225        C  0.65219920  0.82434013  0.79005208     0.87500
C226        C  0.67061195  0.84494711  0.76817296    -0.52700
C227        C  0.70566078  0.85315212  0.77271297     0.10500
C228        C  0.71967321  0.83973858  0.79923219     0.21400
C229        C  0.67652233  0.79163300  0.79375602    -0.53400
C230        C  0.71161767  0.79947650  0.79914573     0.10600
C231        C  0.65862133  0.84660770  0.81440288    -0.52900
C232        C  0.69347574  0.85477060  0.81943834     0.11100
H233        H  0.65702671  0.85234750  0.75039292     0.15700
H234        H  0.74788831  0.84696950  0.80337318     0.01400
H235        H  0.66819355  0.76450537  0.79132411     0.16000
H236        H  0.63685507  0.85476251  0.82704217     0.15800
C237        C  0.83901112  0.62599965  0.80905112     0.87500
C238        C  0.85894526  0.63332285  0.83438643    -0.52700
C239        C  0.86789488  0.66793483  0.83843834     0.10500
C240        C  0.85583664  0.69268325  0.81662393     0.21400
C241        C  0.80620613  0.65108763  0.81012487    -0.53400
C242        C  0.81514238  0.68620553  0.81392181     0.10600
C243        C  0.86215989  0.64238893  0.78773227    -0.52900
C244        C  0.87116717  0.67677188  0.79164949     0.11100
H245        H  0.86601828  0.61232049  0.84784989     0.15700
H246        H  0.86368284  0.72066672  0.82004127     0.01400
H247        H  0.77895650  0.64314337  0.80613136     0.16000
H248        H  0.86962329  0.62822691  0.77023073     0.15800
In249      In  0.93037380  0.70155663  0.58372063     1.36900
C250        C  0.93390567  0.73174302  0.63072610     0.78600
O251        O  0.89289902  0.65663582  0.59318377    -0.59800
O252        O  0.93441074  0.64804918  0.56567132    -0.50700
C253        C  0.89371171  0.73026261  0.54479288     0.71300
O254        O  0.87894482  0.71009677  0.56103654    -0.45600
C255        C  0.99920406  0.69467648  0.57331836     0.76000
O256        O  0.94003035  0.74876393  0.61033079    -0.57400
O257        O  0.98335658  0.67514782  0.58944019    -0.47500
O258        O  0.92286416  0.70073665  0.62690250    -0.53900
C259        C  0.90828642  0.63518914  0.57800145     0.86200
O260        O  0.92473246  0.73987733  0.55109229    -0.55800
O261        O  0.97959181  0.71727170  0.56239612    -0.59100
In262      In  0.70835828  0.91282131  0.58184461     1.36900
C263        C  0.75453211  0.92350014  0.62060906     0.78600
O264        O  0.70732570  0.96028251  0.55576341    -0.59800
O265        O  0.67642214  0.96203406  0.58999737    -0.50700
C266        C  0.73811593  0.88035774  0.54106103     0.71300
O267        O  0.71749695  0.86431993  0.55646709    -0.45600
C268        C  0.64316432  0.88721900  0.59014696     0.76000
O269        O  0.74192113  0.89285585  0.61656071    -0.57400
O270        O  0.65497093  0.89540484  0.56814008    -0.47500
O271        O  0.74466221  0.94629168  0.60449791    -0.53900
C272        C  0.68733637  0.97837392  0.57029164     0.86200
O273        O  0.74660987  0.91098856  0.54847008    -0.55800
O274        O  0.66562442  0.89026849  0.60831090    -0.59100
In275      In  0.71239332  0.90920979  0.88814573     1.36900
C276        C  0.70270956  0.87477541  0.84322361     0.78600
O277        O  0.66370078  0.89323181  0.91069201    -0.59800
O278        O  0.66272953  0.94275321  0.89156104    -0.50700
C279        C  0.74598640  0.87639029  0.92696187     0.71300
O280        O  0.76096773  0.89998815  0.91350223    -0.45600
C281        C  0.73876358  0.97475823  0.88540352     0.76000
O282        O  0.73337052  0.87638096  0.85358715    -0.57400
O283        O  0.72654267  0.96103934  0.90575656    -0.47500
O284        O  0.67882140  0.89098845  0.85548330    -0.53900
C285        C  0.64581625  0.92047465  0.90501636     0.86200
O286        O  0.71650324  0.86597158  0.91790503    -0.55800
O287        O  0.73886962  0.95422134  0.86607846    -0.59100
In288      In  0.93182098  0.68943053  0.90197239     1.36900
C289        C  0.88863820  0.67845150  0.86155085     0.78600
O290        O  0.98365304  0.70622547  0.91918088    -0.59800
O291        O  0.97496492  0.71875096  0.87972639    -0.50700
C292        C  0.89653267  0.71787922  0.94190009     0.71300
O293        O  0.89286112  0.68640098  0.93441415    -0.45600
C294        C  0.95399462  0.62304691  0.90912301     0.76000
O295        O  0.89541980  0.65613845  0.87875913    -0.57400
O296        O  0.96324260  0.64150607  0.88993458    -0.47500
O297        O  0.90208949  0.70874903  0.86559564    -0.53900
C298        C  0.99631425  0.71926621  0.89870902     0.86200
O299        O  0.91548479  0.73664774  0.92705817    -0.55800
O300        O  0.93617031  0.63983374  0.92584045    -0.59100
C301        C  0.98386098  0.76524745  0.30185009     0.87500
C302        C  0.96702815  0.74624542  0.27864270    -0.52700
C303        C  0.93185530  0.73781866  0.28168014     0.10500
C304        C  0.91602320  0.74971136  0.30799433     0.21400
C305        C  0.95940957  0.79810057  0.30533703    -0.53400
C306        C  0.92367849  0.78998725  0.30885617     0.10600
C307        C  0.97582672  0.74167828  0.32518336    -0.52900
C308        C  0.94063226  0.73379392  0.32876079     0.11100
H309        H  0.98150071  0.74043259  0.26096371     0.15700
H310        H  0.88785181  0.74155887  0.31111623     0.01400
H311        H  0.96802334  0.82421566  0.30286797     0.16000
H312        H  0.99654553  0.73287305  0.33850662     0.15800
C313        C  0.79445370  0.96296212  0.29901326     0.87500
C314        C  0.76882083  0.95583366  0.32137826    -0.52700
C315        C  0.75878588  0.92156995  0.32446856     0.10500
C316        C  0.77488361  0.89658233  0.30402855     0.21400
C317        C  0.82601334  0.93702375  0.30368089    -0.53400
C318        C  0.81588019  0.90198299  0.30663419     0.10600
C319        C  0.77629591  0.94757860  0.27501280    -0.52900
C320        C  0.76584430  0.91321484  0.27732144     0.11100
H321        H  0.76040547  0.97666153  0.33463593     0.15700
H322        H  0.76467031  0.86935044  0.30662066     0.01400
H323        H  0.85387628  0.94474313  0.30263570     0.16000
H324        H  0.77236868  0.96266064  0.25732306     0.15800
C325        C  0.83181578  0.62102660  0.17240827     0.87500
C326        C  0.84920991  0.63627395  0.19676331    -0.52700
C327        C  0.86129956  0.67020673  0.19454987     0.10500
C328        C  0.85347376  0.68669318  0.16768487     0.21400
C329        C  0.80120702  0.64755419  0.16688093    -0.53400
C330        C  0.81230166  0.68244329  0.16355003     0.10600
C331        C  0.85831885  0.62753501  0.15040818    -0.52900
C332        C  0.86965733  0.66142536  0.14776973     0.11100
H333        H  0.85130151  0.62113938  0.21455014     0.15700
H334        H  0.86563879  0.71298803  0.16568649     0.01400
H335        H  0.77348354  0.63974779  0.16704396     0.16000
H336        H  0.86677564  0.60651683  0.13733653     0.15800
C337        C  0.64612657  0.81867790  0.16902064     0.87500
C338        C  0.65281384  0.84334293  0.14602108    -0.52700
C339        C  0.68767197  0.85254045  0.14226565     0.10500
C340        C  0.71324813  0.83659024  0.16228080     0.21400
C341        C  0.67141367  0.78698813  0.16459457    -0.53400
C342        C  0.70678052  0.79593267  0.16018140     0.10600
C343        C  0.66302274  0.83718343  0.19230942    -0.52900
C344        C  0.69770249  0.84720677  0.18898815     0.11100
H345        H  0.63146782  0.85195764  0.13316998     0.15700
H346        H  0.74055251  0.84670492  0.15929158     0.01400
H347        H  0.66288341  0.75994197  0.16720733     0.16000
H348        H  0.64866023  0.84165659  0.21028490     0.15800
In349      In  0.93442118  0.68312355  0.08495370     1.36900
C350        C  0.89258087  0.67135296  0.12571166     0.78600
O351        O  0.93840845  0.63680705  0.05783482    -0.59800
O352        O  0.96596452  0.63390891  0.09354667    -0.50700
C353        C  0.89724730  0.71436588  0.04739645     0.71300
O354        O  0.91862146  0.73147167  0.06158313    -0.45600
C355        C  0.99870866  0.71225574  0.08834178     0.76000
O356        O  0.90350441  0.70232123  0.12067201    -0.57400
O357        O  0.98508360  0.70177097  0.06743255    -0.47500
O358        O  0.90244808  0.64821051  0.10985953    -0.53900
C359        C  0.95710838  0.61822488  0.07298249     0.86200
O360        O  0.89205436  0.68291474  0.05460461    -0.55800
O361        O  0.97823400  0.70996357  0.10773242    -0.59100
In362      In  0.70768334  0.90541941  0.07375807     1.36900
C363        C  0.69811066  0.87344802  0.11931487     0.78600
O364        O  0.73525931  0.95006630  0.09531442    -0.59800
O365        O  0.71536800  0.95917518  0.05738272    -0.50700
C366        C  0.74360438  0.87595579  0.03430724     0.71300
O367        O  0.75590675  0.90150078  0.04726034    -0.45600
C368        C  0.63991758  0.90961177  0.05823565     0.76000
O369        O  0.72751760  0.87052431  0.10728471    -0.57400
O370        O  0.65735123  0.93596459  0.06633858    -0.47500
O371        O  0.67613055  0.89419836  0.10901849    -0.53900
C372        C  0.73062302  0.97192392  0.07704086     0.86200
O373        O  0.71584599  0.86243131  0.04397915    -0.55800
O374        O  0.65807556  0.88151757  0.05651675    -0.59100
In375      In  0.92189045  0.68547039  0.39935617     1.36900
C376        C  0.92952634  0.71422890  0.35221220     0.78600
O377        O  0.97195315  0.70828141  0.41771055    -0.59800
O378        O  0.97408528  0.65658940  0.40198278    -0.50700
C379        C  0.88849900  0.71853736  0.43841257     0.71300
O380        O  0.87506423  0.69215368  0.42700672    -0.45600
C381        C  0.89763109  0.61914259  0.40116947     0.76000
O382        O  0.90267689  0.72163336  0.36609946    -0.57400
O383        O  0.91960417  0.63201059  0.41711688    -0.47500
O384        O  0.94925267  0.69055463  0.36142179    -0.53900
C385        C  0.99105990  0.68158474  0.41251495     0.86200
O386        O  0.91642825  0.73026312  0.42774013    -0.55800
O387        O  0.88640150  0.64099236  0.38441828    -0.59100
In388      In  0.70417657  0.90363755  0.39317037     1.36900
C389        C  0.73762428  0.91186597  0.34763991     0.78600
O390        O  0.66140694  0.87157251  0.37314765    -0.59800
O391        O  0.65053318  0.89444202  0.40994206    -0.50700
C392        C  0.73650888  0.87266262  0.43343018     0.71300
O393        O  0.71084224  0.85835309  0.42151004    -0.45600
C394        C  0.69322231  0.97054306  0.40774950     0.76000
O395        O  0.73925111  0.88266110  0.35960474    -0.57400
O396        O  0.67090967  0.95339492  0.39438617    -0.47500
O397        O  0.71820817  0.93462564  0.35837550    -0.53900
C398        C  0.63891645  0.87688831  0.39101306     0.86200
O399        O  0.74888463  0.89970683  0.42225340    -0.55800
O400        O  0.72035671  0.95282492  0.41439745    -0.59100
In401      In  0.20984336  0.40768534  0.57804173     1.36900
C402        C  0.20887463  0.37151813  0.62230377     0.78600
O403        O  0.21584138  0.46083654  0.56010219    -0.59800
O404        O  0.24387612  0.45161884  0.59514336    -0.50700
C405        C  0.24066746  0.37274075  0.53882382     0.71300
O406        O  0.25728852  0.39548151  0.55206263    -0.45600
C407        C  0.14132887  0.42618613  0.57263171     0.76000
O408        O  0.18984953  0.36288159  0.60323827    -0.57400
O409        O  0.15895313  0.43137907  0.59302793    -0.47500
O410        O  0.23082565  0.39614617  0.61782208    -0.53900
C411        C  0.23569892  0.47339444  0.57756226     0.86200
O412        O  0.21054280  0.36465171  0.54797874    -0.55800
O413        O  0.15921290  0.41227758  0.55465583    -0.59100
C414        C  0.32676438  0.12361625  0.67327339     0.87500
C415        C  0.34519609  0.14133136  0.69643527    -0.52700
C416        C  0.35237241  0.17659148  0.69349634     0.10500
C417        C  0.34032722  0.19126700  0.66680094     0.21400
C418        C  0.29306702  0.14626538  0.66856802    -0.53400
C419        C  0.30014089  0.18158111  0.66526565     0.10600
C420        C  0.35051703  0.13214819  0.64995451    -0.52900
C421        C  0.35811362  0.16714141  0.64640048     0.11100
H422        H  0.35275133  0.12656814  0.71361431     0.15700
H423        H  0.34568675  0.21996119  0.66405997     0.01400
H424        H  0.26591339  0.13654632  0.66766970     0.16000
H425        H  0.36075080  0.11157158  0.63723943     0.15800
C426        C  0.20612222  0.35429009  0.69552923     0.87500
C427        C  0.21917114  0.31633859  0.69252478    -0.52700
C428        C  0.20712057  0.29959459  0.67091428     0.10500
C429        C  0.18212869  0.32235421  0.65397926     0.21400
C430        C  0.21622426  0.37283203  0.66995391    -0.53400
C431        C  0.20418978  0.35597913  0.64826180     0.10600
C432        C  0.16503992  0.35216248  0.69402904    -0.52900
C433        C  0.15233552  0.33533250  0.67248012     0.11100
H434        H  0.23806828  0.30416160  0.70586021     0.15700
H435        H  0.17204498  0.30866139  0.63641248     0.01400
H436        H  0.22991981  0.39820140  0.66899445     0.16000
H437        H  0.14721491  0.36429546  0.70804314     0.15800
C438        C  0.48820667  0.27505107  0.79288993     0.87500
C439        C  0.46943656  0.25472052  0.77084528    -0.52700
C440        C  0.43361853  0.24839744  0.77464868     0.10500
C441        C  0.41988294  0.26288583  0.80091416     0.21400
C442        C  0.46548552  0.30891911  0.79533886    -0.53400
C443        C  0.42979935  0.30271672  0.79975004     0.10600
C444        C  0.48012267  0.25379116  0.81719068    -0.52900
C445        C  0.44491030  0.24690652  0.82166645     0.11100
H446        H  0.48334030  0.24667509  0.75342001     0.15700
H447        H  0.39111202  0.25783622  0.80476519     0.01400
H448        H  0.47573320  0.33535740  0.79182322     0.16000
H449        H  0.50133697  0.24424025  0.82985000     0.15800
C450        C  0.29768732  0.47411782  0.80391764     0.87500
C451        C  0.28172247  0.46412903  0.83007888    -0.52700
C452        C  0.27468355  0.42899762  0.83310480     0.10500
C453        C  0.28428258  0.40634491  0.80953113     0.21400
C454        C  0.33128722  0.45015975  0.80170024    -0.53400
C455        C  0.32406173  0.41468915  0.80476467     0.10600
C456        C  0.27210474  0.45869482  0.78367177    -0.52900
C457        C  0.26523187  0.42348517  0.78639119     0.11100
H458        H  0.27573435  0.48368804  0.84491690     0.15700
H459        H  0.27810301  0.37776878  0.81214265     0.01400
H460        H  0.35805604  0.45896665  0.79719261     0.16000
H461        H  0.26263045  0.47383256  0.76714622     0.15800
In462      In  0.42722237  0.18073097  0.88487722     1.36900
C463        C  0.43540540  0.22360987  0.84380095     0.78600
O464        O  0.47434327  0.20527032  0.90568092    -0.59800
O465        O  0.47727624  0.15125376  0.89480756    -0.50700
C466        C  0.39625626  0.19031472  0.93086982     0.71300
O467        O  0.40189125  0.21599181  0.91562734    -0.45600
C468        C  0.40244868  0.12009559  0.86565235     0.76000
O469        O  0.40543547  0.22189003  0.85522393    -0.57400
O470        O  0.43502642  0.12870363  0.86563530    -0.47500
O471        O  0.45889137  0.20371306  0.85326914    -0.53900
C472        C  0.49305005  0.17740322  0.90485611     0.86200
O473        O  0.40354789  0.16040073  0.92146947    -0.55800
O474        O  0.38144621  0.14392418  0.87381539    -0.59100
In475      In  0.21461139  0.40797173  0.89668362     1.36900
C476        C  0.25753486  0.41641238  0.85686055     0.78600
O477        O  0.17082230  0.38137529  0.87391745    -0.59800
O478        O  0.16004884  0.39893964  0.91220917    -0.50700
C479        C  0.24395976  0.37161463  0.93539406     0.71300
O480        O  0.22412565  0.35706296  0.91877512    -0.45600
C481        C  0.19840680  0.47605969  0.90325181     0.76000
O482        O  0.23714582  0.38977221  0.85807739    -0.57400
O483        O  0.19133376  0.45929272  0.88280976    -0.47500
O484        O  0.25944861  0.43444918  0.87719296    -0.53900
C485        C  0.14815612  0.38464839  0.89189157     0.86200
O486        O  0.25215507  0.40314435  0.93021293    -0.55800
O487        O  0.21145287  0.45716421  0.92103856    -0.59100
In488      In  0.42917275  0.18919084  0.58660382     1.36900
C489        C  0.38168910  0.17783735  0.62462027     0.78600
O490        O  0.41756531  0.14166655  0.56188704    -0.59800
O491        O  0.46577179  0.14161307  0.58315180    -0.50700
C492        C  0.41005374  0.22087182  0.54253740     0.71300
O493        O  0.44192716  0.21345094  0.54842270    -0.45600
C494        C  0.48852209  0.21793567  0.60632813     0.76000
O495        O  0.39319318  0.20880048  0.62014720    -0.57400
O496        O  0.47549636  0.18901722  0.61405164    -0.47500
O497        O  0.39292420  0.15489365  0.60904301    -0.53900
C498        C  0.44500467  0.12456349  0.56851569     0.86200
O499        O  0.38758750  0.21478121  0.56030370    -0.55800
O500        O  0.46913254  0.23402457  0.59014128    -0.59100
C501        C  0.13435809  0.31573134  0.30537666     0.87500
C502        C  0.15018294  0.33123961  0.28016505    -0.52700
C503        C  0.18679208  0.33500933  0.28023499     0.10500
C504        C  0.20428483  0.32324080  0.30597802     0.21400
C505        C  0.15519210  0.28088357  0.30966943    -0.53400
C506        C  0.19175383  0.28486099  0.30996460     0.10600
C507        C  0.14861178  0.34158101  0.32590245    -0.52900
C508        C  0.18488051  0.34494194  0.32666946     0.11100
H509        H  0.13362465  0.34023246  0.26422659     0.15700
H510        H  0.23385155  0.32595088  0.30648999     0.01400
H511        H  0.14214059  0.25533447  0.31190849     0.16000
H512        H  0.13182700  0.35763450  0.33832602     0.15800
C513        C  0.32942184  0.11798166  0.30101413     0.87500
C514        C  0.35350078  0.12696253  0.32411265    -0.52700
C515        C  0.36026636  0.16221158  0.32763699     0.10500
C516        C  0.34275913  0.18595061  0.30680453     0.21400
C517        C  0.29580697  0.14079823  0.30474934    -0.53400
C518        C  0.30233850  0.17641813  0.30746917     0.10600
C519        C  0.34952621  0.13495319  0.27821671    -0.52900
C520        C  0.35639662  0.17026667  0.28097049     0.11100
H521        H  0.36476764  0.10674197  0.33669833     0.15700
H522        H  0.34883199  0.21460263  0.30901592     0.01400
H523        H  0.26907537  0.12951459  0.30516279     0.16000
H524        H  0.35977154  0.12050799  0.26176891     0.15800
C525        C  0.29234858  0.45807462  0.17788053     0.87500
C526        C  0.27094304  0.44143854  0.20015219    -0.52700
C527        C  0.26305860  0.40625682  0.19704479     0.10500
C528        C  0.27744524  0.39052513  0.17147905     0.21400
C529        C  0.32571558  0.43393932  0.17592455    -0.53400
C530        C  0.31791084  0.39868459  0.17257869     0.10600
C531        C  0.27064264  0.44965946  0.15361339    -0.52900
C532        C  0.26268709  0.41478718  0.15004121     0.11100
H533        H  0.26290145  0.45638356  0.21716966     0.15700
H534        H  0.27106869  0.36199747  0.16885596     0.01400
H535        H  0.35308976  0.44262277  0.17809716     0.16000
H536        H  0.26233117  0.47011005  0.14005399     0.15800
C537        C  0.48759867  0.26455740  0.17748746     0.87500
C538        C  0.47877818  0.24109253  0.15440536    -0.52700
C539        C  0.44348690  0.23347069  0.15111673     0.10500
C540        C  0.41914436  0.25036132  0.17181814     0.21400
C541        C  0.46384524  0.29777328  0.17391706    -0.53400
C542        C  0.42797823  0.29029231  0.17107039     0.10600
C543        C  0.47044258  0.24606794  0.20086005    -0.52900
C544        C  0.43494562  0.23820685  0.19800836     0.11100
H545        H  0.49942387  0.23116740  0.14142706     0.15700
H546        H  0.39028032  0.24396813  0.16948373     0.01400
H547        H  0.47342814  0.32479737  0.17530027     0.16000
H548        H  0.48505315  0.24046729  0.21855659     0.15800
In549      In  0.21043253  0.39603717  0.08104951     1.36900
C550        C  0.24196770  0.40424279  0.12696272     0.78600
O551        O  0.23369754  0.44548697  0.06374226    -0.59800
O552        O  0.17910244  0.44634068  0.07458106    -0.50700
C553        C  0.24097876  0.36206313  0.04161573     0.71300
O554        O  0.21489263  0.34937539  0.05392376    -0.45600
C555        C  0.14473134  0.36986998  0.08299827     0.76000
O556        O  0.24657483  0.37610581  0.11406765    -0.57400
O557        O  0.15664243  0.38752398  0.06418580    -0.47500
O558        O  0.21972409  0.42537156  0.11732088    -0.53900
C559        C  0.20546570  0.46357942  0.06596822     0.86200
O560        O  0.25462337  0.38907765  0.05200869    -0.55800
O561        O  0.16692634  0.36487051  0.10114227    -0.59100
In562      In  0.42655735  0.17202310  0.08636615     1.36900
C563        C  0.43327622  0.21010137  0.12940025     0.78600
O564        O  0.38214796  0.13564106  0.10015684    -0.59800
O565        O  0.43611882  0.11723689  0.10036326    -0.50700
C566        C  0.39574524  0.18563863  0.04069345     0.71300
O567        O  0.39988167  0.15486984  0.04965726    -0.45600
C568        C  0.49287746  0.17690925  0.06780667     0.76000
O569        O  0.40485431  0.21231723  0.11608440    -0.57400
O570        O  0.47777385  0.14753637  0.07208950    -0.47500
O571        O  0.45533687  0.18749405  0.12142931    -0.53900
C572        C  0.40360218  0.11033080  0.10457897     0.86200
O573        O  0.40392545  0.21002074  0.05637793    -0.55800
O574        O  0.47324372  0.20349461  0.07190944    -0.59100
In575      In  0.21183573  0.40130135  0.39078104     1.36900
C576        C  0.20113355  0.36786132  0.34646988     0.78600
O577        O  0.15944014  0.38008896  0.40554353    -0.59800
O578        O  0.16239929  0.43443597  0.39567052    -0.50700
C579        C  0.24186371  0.36963280  0.43158973     0.71300
O580        O  0.25946185  0.39025445  0.41712643    -0.45600
C581        C  0.23849323  0.46664723  0.38985014     0.76000
O582        O  0.22674442  0.35879872  0.36104155    -0.57400
O583        O  0.22000900  0.45392374  0.40798236    -0.47500
O584        O  0.18602839  0.39630347  0.35266322    -0.53900
C585        C  0.14300784  0.40906446  0.40302832     0.86200
O586        O  0.21120777  0.36217841  0.42310248    -0.55800
O587        O  0.24552505  0.44482263  0.37189830    -0.59100
In588      In  0.42268381  0.18245061  0.39231224     1.36900
C589        C  0.38386103  0.17319988  0.34929086     0.78600
O590        O  0.46380636  0.20985388  0.36672930    -0.59800
O591        O  0.47827566  0.19346549  0.40466555    -0.50700
C592        C  0.39998883  0.21782738  0.43414567     0.71300
O593        O  0.42465832  0.22898023  0.41970322    -0.45600
C594        C  0.43018948  0.11539505  0.40807972     0.76000
O595        O  0.38189831  0.20205903  0.36176971    -0.57400
O596        O  0.45491849  0.13244183  0.39712897    -0.47500
O597        O  0.40668429  0.15184500  0.35792938    -0.53900
C598        C  0.48796554  0.20785527  0.38384574     0.86200
O599        O  0.38309281  0.19184998  0.42482857    -0.55800
O600        O  0.40234721  0.13342757  0.41218788    -0.59100
In601      In  0.42612566  0.90753606  0.58060595     1.36900
C602        C  0.38416800  0.91674714  0.62216690     0.78600
O603        O  0.46953508  0.88822921  0.60755396    -0.59800
O604        O  0.47919198  0.88870852  0.56706664    -0.50700
C605        C  0.39732665  0.87211690  0.54084308     0.71300
O606        O  0.42062983  0.85844284  0.55539097    -0.45600
C607        C  0.44244212  0.97348355  0.56552442     0.76000
O608        O  0.39193298  0.88584178  0.61448499    -0.57400
O609        O  0.46207966  0.95542825  0.58026815    -0.47500
O610        O  0.39741609  0.94094556  0.60862210    -0.53900
C611        C  0.49160215  0.88321965  0.58937715     0.86200
O612        O  0.38615339  0.90177546  0.54855879    -0.55800
O613        O  0.41555625  0.95685771  0.55713592    -0.59100
C614        C  0.49398590  0.82101332  0.79143445     0.87500
C615        C  0.48639878  0.84267179  0.81589088    -0.52700
C616        C  0.45115989  0.84997350  0.82048662     0.10500
C617        C  0.42594955  0.83485317  0.79968151     0.21400
C618        C  0.47031554  0.78757859  0.79450900    -0.53400
C619        C  0.43478828  0.79503163  0.79884128     0.10600
C620        C  0.47555250  0.84131901  0.76947241    -0.52900
C621        C  0.44030793  0.84883983  0.77366343     0.11100
H622        H  0.50772896  0.85151038  0.82867575     0.15700
H623        H  0.39719346  0.84097027  0.80295808     0.01400
H624        H  0.47937128  0.76051393  0.79260698     0.16000
H625        H  0.48916658  0.84842732  0.75166455     0.15800
C626        C  0.29657084  0.63060635  0.80265458     0.87500
C627        C  0.27264103  0.64544789  0.78116271    -0.52700
C628        C  0.26545929  0.68077354  0.78308623     0.10500
C629        C  0.28291834  0.69870081  0.80676133     0.21400
C630        C  0.33023138  0.65433246  0.80169829    -0.53400
C631        C  0.32296644  0.68982018  0.80378929     0.10600
C632        C  0.27843880  0.64142734  0.82796844    -0.52900
C633        C  0.27119778  0.67668471  0.83036165     0.11100
H634        H  0.26322206  0.62940876  0.76508617     0.15700
H635        H  0.27703604  0.72748873  0.80838748     0.01400
H636        H  0.35752015  0.64536454  0.79974126     0.16000
H637        H  0.27179558  0.62233919  0.84297094     0.15800
C638        C  0.14397350  0.76583628  0.66902684     0.87500
C639        C  0.15840205  0.74794521  0.69364737    -0.52700
C640        C  0.19469814  0.74240069  0.69395611     0.10500
C641        C  0.21354993  0.75511115  0.66889009     0.21400
C642        C  0.16634871  0.79970383  0.66629932    -0.53400
C643        C  0.20254736  0.79421348  0.66628335     0.10600
C644        C  0.15736467  0.74104845  0.64742494    -0.52900
C645        C  0.19363640  0.73628653  0.64685938     0.11100
H646        H  0.14126038  0.74112573  0.70981440     0.15700
H647        H  0.24293355  0.75057973  0.66852148     0.01400
H648        H  0.15449553  0.82591787  0.66479476     0.16000
H649        H  0.14029110  0.72780870  0.63355453     0.15800
C650        C  0.32995680  0.96768275  0.67294977     0.87500
C651        C  0.35228290  0.96048452  0.64872623    -0.52700
C652        C  0.36159710  0.92596323  0.64478961     0.10500
C653        C  0.34713514  0.90085027  0.66589347     0.21400
C654        C  0.29739255  0.94293288  0.66976122    -0.53400
C655        C  0.30631355  0.90791759  0.66636567     0.10600
C656        C  0.35111636  0.95119615  0.69526176    -0.52900
C657        C  0.36062921  0.91671114  0.69167821     0.11100
H658        H  0.36030014  0.98163827  0.63567491     0.15700
H659        H  0.35474903  0.87263625  0.66314876     0.01400
H660        H  0.26970873  0.95115212  0.67018122     0.16000
H661        H  0.35811365  0.96584704  0.71264834     0.15800
In662      In  0.21473874  0.69714931  0.89676158     1.36900
C663        C  0.25452720  0.68964976  0.85445348     0.78600
O664        O  0.21328455  0.64750668  0.92083729    -0.59800
O665        O  0.19126019  0.64578977  0.88320434    -0.50700
C666        C  0.24688658  0.72920834  0.93663052     0.71300
O667        O  0.22425885  0.74510127  0.92271651    -0.45600
C668        C  0.14784659  0.72084463  0.89584290     0.76000
O669        O  0.23170012  0.71429918  0.85589250    -0.57400
O670        O  0.16045048  0.70183027  0.91370910    -0.47500
O671        O  0.25975861  0.67342933  0.87528328    -0.53900
C672        C  0.19938759  0.62879434  0.90332571     0.86200
O673        O  0.25666072  0.69984242  0.92761664    -0.55800
O674        O  0.16994357  0.72869190  0.87821111    -0.59100
In675      In  0.22085231  0.69100651  0.57787281     1.36900
C676        C  0.20989434  0.71728146  0.62488351     0.78600
O677        O  0.16978742  0.71799479  0.56692331    -0.59800
O678        O  0.17018958  0.66188035  0.56916232    -0.50700
C679        C  0.25398156  0.72298285  0.53836043     0.71300
O680        O  0.27033477  0.70210520  0.55339467    -0.45600
C681        C  0.24347665  0.62448018  0.57706171     0.76000
O682        O  0.23410771  0.72993004  0.61045495    -0.57400
O683        O  0.22456550  0.63825473  0.55952418    -0.47500
O684        O  0.19600528  0.68919176  0.61672319    -0.53900
C685        C  0.15195984  0.68964959  0.56601671     0.86200
O686        O  0.22292162  0.73084877  0.54580154    -0.55800
O687        O  0.25322397  0.64573850  0.59468906    -0.59100
In688      In  0.42899063  0.91149617  0.88538074     1.36900
C689        C  0.44075224  0.87072299  0.84369776     0.78600
O690        O  0.38323780  0.95016264  0.87833477    -0.59800
O691        O  0.43470907  0.96180254  0.86328868    -0.50700
C692        C  0.39665168  0.89232682  0.92936243     0.71300
O693        O  0.40242214  0.92393653  0.92282456    -0.45600
C694        C  0.49364501  0.92126176  0.90574554     0.76000
O695        O  0.40907619  0.87786411  0.85079442    -0.57400
O696        O  0.47526716  0.94626405  0.89647090    -0.47500
O697        O  0.46447124  0.88317375  0.85824009    -0.53900
C698        C  0.40300231  0.97221794  0.86672527     0.86200
O699        O  0.40478303  0.86975527  0.91223374    -0.55800
O700        O  0.47773204  0.89181086  0.90617125    -0.59100
C701        C  0.48847957  0.81132069  0.17449848     0.87500
C702        C  0.47188680  0.83103667  0.19758520    -0.52700
C703        C  0.43611309  0.83806643  0.19544443     0.10500
C704        C  0.41975956  0.82436235  0.16968857     0.21400
C705        C  0.46534164  0.77761342  0.17228482    -0.53400
C706        C  0.42937243  0.78448586  0.16986063     0.10600
C707        C  0.47855567  0.83315159  0.15087325    -0.52900
C708        C  0.44309058  0.84024564  0.14783280     0.11100
H709        H  0.48752972  0.83878606  0.21433658     0.15700
H710        H  0.39065368  0.82954217  0.16743477     0.01400
H711        H  0.47536859  0.75080821  0.17438997     0.16000
H712        H  0.49880692  0.84223609  0.13728304     0.15800
C713        C  0.29568209  0.61511401  0.17847700     0.87500
C714        C  0.27320109  0.62443782  0.15465727    -0.52700
C715        C  0.26643589  0.65959316  0.15140997     0.10500
C716        C  0.28253047  0.68299544  0.17276675     0.21400
C717        C  0.32976505  0.63837858  0.17571956    -0.53400
C718        C  0.32255598  0.67382259  0.17284187     0.10600
C719        C  0.27569134  0.63208698  0.20127171    -0.52900
C720        C  0.26875112  0.66747348  0.19857775     0.11100
H721        H  0.26395646  0.60451649  0.14098274     0.15700
H722        H  0.27729442  0.71171778  0.17005032     0.01400
H723        H  0.35709393  0.62922745  0.17731902     0.16000
H724        H  0.26741511  0.61693425  0.21808711     0.15800
C725        C  0.14206817  0.76882348  0.30107151     0.87500
C726        C  0.15218360  0.74520972  0.32400713    -0.52700
C727        C  0.18789045  0.73870502  0.32678080     0.10500
C728        C  0.21091248  0.75660518  0.30591294     0.21400
C729        C  0.16481747  0.80263538  0.30451994    -0.53400
C730        C  0.20076155  0.79612444  0.30699304     0.10600
C731        C  0.15921823  0.75088259  0.27744163    -0.52900
C732        C  0.19502265  0.74415916  0.27987038     0.11100
H733        H  0.13227865  0.73477084  0.33732843     0.15700
H734        H  0.24009395  0.75161706  0.30790252     0.01400
H735        H  0.15475656  0.82943695  0.30339292     0.16000
H736        H  0.14401756  0.74358688  0.26034691     0.15800
C737        C  0.33510803  0.96329090  0.29983957     0.87500
C738        C  0.35605446  0.94712511  0.27702125    -0.52700
C739        C  0.36316290  0.91166982  0.27938877     0.10500
C740        C  0.35011269  0.89573689  0.30531335     0.21400
C741        C  0.30212089  0.93958136  0.30297991    -0.53400
C742        C  0.30982540  0.90433444  0.30557617     0.10600
C743        C  0.35904836  0.95469755  0.32309671    -0.52900
C744        C  0.36642882  0.91956113  0.32651566     0.11100
H745        H  0.36599465  0.96212959  0.26071707     0.15700
H746        H  0.35607258  0.86708547  0.30760328     0.01400
H747        H  0.27492350  0.94980897  0.30271273     0.16000
H748        H  0.36892839  0.97496937  0.33622109     0.15800
In749      In  0.21561653  0.68266981  0.08246527     1.36900
C750        C  0.24672832  0.67163916  0.12828227     0.78600
O751        O  0.17282759  0.71259850  0.10461888    -0.59800
O752        O  0.16107492  0.69326506  0.06699774    -0.50700
C753        C  0.24622483  0.71772534  0.04321783     0.71300
O754        O  0.22681663  0.73308591  0.05973676    -0.45600
C755        C  0.20965740  0.61564938  0.06689640     0.76000
O756        O  0.25492791  0.69832595  0.11470168    -0.57400
O757        O  0.18292015  0.63504128  0.07169176    -0.47500
O758        O  0.22170366  0.65322478  0.11924550    -0.53900
C759        C  0.14986129  0.70917274  0.08683954     0.86200
O760        O  0.25335271  0.68603549  0.04873847    -0.55800
O761        O  0.23942612  0.63127307  0.06885934    -0.59100
In762      In  0.42099537  0.89721875  0.39455158     1.36900
C763        C  0.38725168  0.90826335  0.34948515     0.78600
O764        O  0.40113934  0.94650295  0.41403225    -0.59800
O765        O  0.45463100  0.94582262  0.40048386    -0.50700
C766        C  0.39047853  0.86367340  0.43407309     0.71300
O767        O  0.37977738  0.89316480  0.42571555    -0.45600
C768        C  0.48740189  0.87277805  0.39143516     0.76000
O769        O  0.38483906  0.87861427  0.36082583    -0.57400
O770        O  0.47415539  0.88578024  0.41171433    -0.47500
O771        O  0.40773668  0.92984708  0.36045690    -0.53900
C772        C  0.42979027  0.96360985  0.41070043     0.86200
O773        O  0.41276698  0.84843048  0.41948680    -0.55800
O774        O  0.46584268  0.87045533  0.37263923    -0.59100
In775      In  0.42192958  0.90237559  0.08307116     1.36900
C776        C  0.43215997  0.86169264  0.12501368     0.78600
O777        O  0.47023305  0.87938864  0.06346842    -0.59800
O778        O  0.46927527  0.93472994  0.07019863    -0.50700
C779        C  0.38982325  0.88668753  0.03806302     0.71300
O780        O  0.39282526  0.91767204  0.04687746    -0.45600
C781        C  0.40011906  0.96325946  0.10365748     0.76000
O782        O  0.40076201  0.86605372  0.11625823    -0.57400
O783        O  0.43242713  0.95381079  0.10256235    -0.47500
O784        O  0.45585659  0.87718257  0.11212696    -0.53900
C785        C  0.48696535  0.90837869  0.06226114     0.86200
O786        O  0.39959258  0.86282395  0.05370956    -0.55800
O787        O  0.37803319  0.94051521  0.09528624    -0.59100
In788      In  0.21286586  0.68500847  0.39409433     1.36900
C789        C  0.20063440  0.71718248  0.34888832     0.78600
O790        O  0.24079167  0.63967542  0.37251688    -0.59800
O791        O  0.22328951  0.63193391  0.41103543    -0.50700
C792        C  0.24944781  0.71764526  0.43194860     0.71300
O793        O  0.26189061  0.69165891  0.41953579    -0.45600
C794        C  0.14540993  0.68045005  0.41141599     0.76000
O795        O  0.23052009  0.72066478  0.36018674    -0.57400
O796        O  0.16271535  0.65413871  0.40304962    -0.47500
O797        O  0.18002637  0.69521099  0.35934173    -0.53900
C798        C  0.23762944  0.61836653  0.39130727     0.86200
O799        O  0.22085030  0.72973872  0.42256635    -0.55800
O800        O  0.16364217  0.70849524  0.41269153    -0.59100
C801        C  0.25633050  0.82343865  0.32503744     0.24700
C802        C  0.22797768  0.82453781  0.30720765    -0.23500
C803        C  0.22691227  0.85172835  0.28862633     0.19600
C804        C  0.25362334  0.87758093  0.28809425     0.24600
C805        C  0.28170597  0.87681416  0.30621875    -0.23400
C806        C  0.28311038  0.84931770  0.32448762     0.19500
F807        F  0.31003164  0.84782632  0.34210095    -0.13400
F808        F  0.25773923  0.79764242  0.34330066    -0.15700
F809        F  0.25289306  0.90248458  0.26913449    -0.15700
F810        F  0.20089020  0.85245228  0.27026820    -0.13400
C811        C  0.22684578  0.71568263  0.21327882     0.24700
C812        C  0.25138318  0.68868218  0.21940504    -0.23500
C813        C  0.25882123  0.68168447  0.24568956     0.19600
C814        C  0.24068130  0.69985192  0.26525533     0.24600
C815        C  0.21591287  0.72652596  0.25909664    -0.23400
C816        C  0.20989982  0.73492356  0.23289764     0.19500
F817        F  0.18753141  0.76179712  0.22618602    -0.13400
F818        F  0.21798092  0.72258709  0.18833885    -0.15700
F819        F  0.24630001  0.69018085  0.29020664    -0.15700
F820        F  0.28383499  0.65734048  0.25263652    -0.13400
C821        C  0.42367158  0.84736893  0.24314622     0.24700
C822        C  0.41561172  0.85515815  0.21700842    -0.23500
C823        C  0.38874132  0.88024413  0.21178973     0.19600
C824        C  0.37083297  0.89746249  0.23203613     0.24600
C825        C  0.38022737  0.89098693  0.25806060    -0.23400
C826        C  0.40654950  0.86542637  0.26335098     0.19500
F827        F  0.41682079  0.85878307  0.28805880    -0.13400
F828        F  0.44810862  0.82208965  0.24934811    -0.15700
F829        F  0.34408702  0.92048050  0.22608871    -0.15700
F830        F  0.38074835  0.88935989  0.18707921    -0.13400
C831        C  0.37403646  0.75742927  0.18848564     0.24700
C832        C  0.40206743  0.75607711  0.17039781    -0.23500
C833        C  0.40427309  0.72715547  0.15331472     0.19600
C834        C  0.37852414  0.70017561  0.15410642     0.24600
C835        C  0.35048925  0.70161733  0.17218152    -0.23400
C836        C  0.34848424  0.73043036  0.18937163     0.19500
F837        F  0.32223337  0.73206262  0.20749610    -0.13400
F838        F  0.37199929  0.78427404  0.20591787    -0.15700
F839        F  0.38023799  0.67331464  0.13667237    -0.15700
F840        F  0.43084588  0.72555164  0.13544044    -0.13400
C841        C  0.39882239  0.85432968  0.96935053     0.24700
C842        C  0.38446531  0.88356644  0.95593394    -0.23500
C843        C  0.36412051  0.90857149  0.96977495     0.19600
C844        C  0.36172535  0.90677771  0.99673649     0.24600
C845        C  0.38012801  0.88027571  0.01052275    -0.23400
C846        C  0.39639830  0.85253791  0.99648159     0.19500
F847        F  0.41334152  0.82575460  0.00905566    -0.13400
F848        F  0.41876454  0.82975602  0.95664677    -0.15700
F849        F  0.34362844  0.93262582  0.00952360    -0.15700
F850        F  0.34882392  0.93644634  0.95734365    -0.13400
C851        C  0.28877770  0.70879661  0.49846956     0.24700
C852        C  0.26669278  0.73261332  0.51205130    -0.23500
C853        C  0.24847684  0.75900623  0.49795026     0.19600
C854        C  0.24701712  0.75740221  0.47088364     0.24600
C855        C  0.26350863  0.72916057  0.45756448    -0.23400
C856        C  0.28683887  0.70674637  0.47143769     0.19500
F857        F  0.30410281  0.67973721  0.45935533    -0.13400
F858        F  0.30825446  0.68406331  0.51135596    -0.15700
F859        F  0.22623549  0.78116872  0.45805862    -0.15700
F860        F  0.22882798  0.78403298  0.51043375    -0.13400
C861        C  0.28442286  0.72216333  0.97620792     0.24700
C862        C  0.25649563  0.74004200  0.96335755    -0.23500
C863        C  0.23174931  0.75950716  0.97824747     0.19600
C864        C  0.23136612  0.75610591  0.00526641     0.24600
C865        C  0.25563630  0.73313481  0.01770154    -0.23400
C866        C  0.28374579  0.71834910  0.00313280     0.19500
F867        F  0.30862508  0.69734375  0.01464336    -0.13400
F868        F  0.31018923  0.70503529  0.96250239    -0.15700
F869        F  0.20418446  0.77133048  0.01873056    -0.15700
F870        F  0.20488375  0.77784416  0.96663436    -0.13400
C871        C  0.25685592  0.82374203  0.64759750     0.24700
C872        C  0.22862190  0.82365866  0.66554986    -0.23500
C873        C  0.22549211  0.85173120  0.68321021     0.19600
C874        C  0.25040683  0.87928596  0.68318751     0.24600
C875        C  0.27899988  0.87935341  0.66542409    -0.23400
C876        C  0.28175163  0.85154291  0.64740488     0.19500
F877        F  0.30787891  0.85178791  0.62915221    -0.13400
F878        F  0.25981192  0.79739556  0.62985252    -0.15700
F879        F  0.24718643  0.90525418  0.70122192    -0.15700
F880        F  0.19898136  0.85180778  0.70118954    -0.13400
C881        C  0.19682184  0.69950586  0.73132279     0.24700
C882        C  0.21322758  0.72690713  0.71698398    -0.23500
C883        C  0.24640608  0.74035076  0.72565064     0.19600
C884        C  0.26268854  0.72663638  0.74799580     0.24600
C885        C  0.24608302  0.69937405  0.76209216    -0.23400
C886        C  0.21287702  0.68628143  0.75372112     0.19500
F887        F  0.19619388  0.66009175  0.76713470    -0.13400
F888        F  0.16574802  0.68443012  0.72323200    -0.15700
F889        F  0.29534836  0.73900460  0.75524231    -0.15700
F890        F  0.26297646  0.76705933  0.71278434    -0.13400
C891        C  0.43122411  0.89810682  0.74225649     0.24700
C892        C  0.41851107  0.86669721  0.75358539    -0.23500
C893        C  0.38712446  0.85091732  0.74383756     0.19600
C894        C  0.36884516  0.86634944  0.72294423     0.24600
C895        C  0.38172892  0.89771928  0.71162138    -0.23400
C896        C  0.41318976  0.91331900  0.72140161     0.19500
F897        F  0.42661184  0.94333716  0.71060879    -0.13400
F898        F  0.46110969  0.91423778  0.75157518    -0.15700
F899        F  0.33808484  0.85126054  0.71426961    -0.15700
F900        F  0.37474985  0.82010958  0.75403501    -0.13400
C901        C  0.40413915  0.74108001  0.78145621     0.24700
C902        C  0.40668318  0.76752196  0.80052210    -0.23500
C903        C  0.38104190  0.76876308  0.82040644     0.19600
C904        C  0.35355676  0.74361122  0.82142308     0.24600
C905        C  0.35136433  0.71696044  0.80254134    -0.23400
C906        C  0.37663018  0.71606725  0.78242878     0.19500
F907        F  0.37388156  0.69168459  0.76319655    -0.13400
F908        F  0.42738568  0.74032800  0.76128345    -0.15700
F909        F  0.32964629  0.74477508  0.84118410    -0.15700
F910        F  0.38302559  0.79390855  0.83914139    -0.13400
C911        C  0.41081683  0.83518177  0.50155968     0.24700
C912        C  0.38714421  0.85754579  0.51518652    -0.23500
C913        C  0.35788401  0.87232266  0.50184301     0.19600
C914        C  0.35563564  0.86965341  0.47492828     0.24600
C915        C  0.38254952  0.85203475  0.46086849    -0.23400
C916        C  0.40821802  0.83207711  0.47457558     0.19500
F917        F  0.43381016  0.81348172  0.46173655    -0.13400
F918        F  0.43917264  0.81996975  0.51372488    -0.15700
F919        F  0.32938066  0.88777449  0.46244556    -0.15700
F920        F  0.33344066  0.89255119  0.51451235    -0.13400
C921        C  0.40268319  0.02138302  0.42423363     0.24700
C922        C  0.43277698  0.00209537  0.41580764    -0.23500
C923        C  0.46389980  0.02069099  0.40857871     0.19600
C924        C  0.46378089  0.05772904  0.40748220     0.24600
C925        C  0.43263696  0.07696416  0.41382653    -0.23400
C926        C  0.40252056  0.05840299  0.42309467     0.19500
F927        F  0.37191823  0.07580500  0.42946762    -0.13400
F928        F  0.37243552  0.00447011  0.43203027    -0.15700
F929        F  0.49354302  0.07450761  0.39865170    -0.15700
F930        F  0.49385002  0.00309348  0.40095367    -0.13400
C931        C  0.24647987  0.52349459  0.41335215     0.24700
C932        C  0.24827221  0.50482222  0.38986384    -0.23500
C933        C  0.25344870  0.52409999  0.36682630     0.19600
C934        C  0.25281264  0.56151475  0.36716430     0.24600
C935        C  0.24731316  0.57999332  0.39058270    -0.23400
C936        C  0.24634180  0.56041876  0.41373704     0.19500
F937        F  0.24301899  0.57690760  0.43694966    -0.13400
F938        F  0.24246210  0.50598360  0.43611202    -0.15700
F939        F  0.25497625  0.57938886  0.34445256    -0.15700
F940        F  0.25611535  0.50693676  0.34382691    -0.13400
C941        C  0.41194322  0.01773303  0.12951603     0.24700
C942        C  0.39043109  0.99968101  0.11145951    -0.23500
C943        C  0.36615829  0.01915492  0.09628589     0.19600
C944        C  0.36713631  0.05631047  0.09647590     0.24600
C945        C  0.39237418  0.07420896  0.11182886    -0.23400
C946        C  0.41302136  0.05481342  0.12961238     0.19500
F947        F  0.43650123  0.07169143  0.14547395    -0.13400
F948        F  0.43428964  0.99946293  0.14540768    -0.15700
F949        F  0.34711102  0.07445921  0.07901777    -0.15700
F950        F  0.34519295  0.00243963  0.07863492    -0.13400
C951        C  0.17335876  0.52211165  0.06684722     0.24700
C952        C  0.20429609  0.50229032  0.06096064    -0.23500
C953        C  0.23545721  0.52043408  0.05314983     0.19600
C954        C  0.23663479  0.55750708  0.05351921     0.24600
C955        C  0.20655387  0.57722095  0.06144125    -0.23400
C956        C  0.17444196  0.55917671  0.06694634     0.19500
F957        F  0.14458822  0.57724521  0.07415444    -0.13400
F958        F  0.14249491  0.50578526  0.07400156    -0.15700
F959        F  0.26773785  0.57397542  0.04709267    -0.15700
F960        F  0.26550365  0.50237057  0.04637562    -0.13400
C961        C  0.26520110  0.51872616  0.18442640     0.24700
C962        C  0.29660573  0.49852843  0.18066823    -0.23500
C963        C  0.32909661  0.51727958  0.17700860     0.19600
C964        C  0.33008269  0.55454087  0.17793733     0.24600
C965        C  0.29832666  0.57453508  0.18120877    -0.23400
C966        C  0.26602008  0.55561361  0.18463006     0.19500
F967        F  0.23428062  0.57301313  0.18692528    -0.13400
F968        F  0.23271488  0.50267755  0.18637159    -0.15700
F969        F  0.36222326  0.57022026  0.17405111    -0.15700
F970        F  0.35980252  0.50057237  0.17029947    -0.13400
C971        C  0.34512785  0.34369092  0.15349921     0.24700
C972        C  0.34594101  0.37072086  0.17221679    -0.23500
C973        C  0.37344687  0.37064988  0.19084297     0.19600
C974        C  0.40009695  0.34462024  0.19032867     0.24600
C975        C  0.39979697  0.31806859  0.17123450    -0.23400
C976        C  0.37171037  0.31742528  0.15311598     0.19500
F977        F  0.37042626  0.29183847  0.13467360    -0.13400
F978        F  0.31917765  0.34328339  0.13510809    -0.15700
F979        F  0.42544164  0.34455271  0.20917382    -0.15700
F980        F  0.37390801  0.39509084  0.21012888    -0.13400
C981        C  0.31365240  0.05818160  0.32128334     0.24700
C982        C  0.32177423  0.07798325  0.29888065    -0.23500
C983        C  0.32354000  0.05922136  0.27524986     0.19600
C984        C  0.32557360  0.02216125  0.27497078     0.24600
C985        C  0.32535746  0.00278055  0.29828814    -0.23400
C986        C  0.31503540  0.02109259  0.32090470     0.19500
F987        F  0.30760011  0.00312853  0.34301580    -0.13400
F988        F  0.30594810  0.07470334  0.34394214    -0.15700
F989        F  0.32552559  0.00565215  0.25168762    -0.15700
F990        F  0.32129850  0.07612953  0.25218866    -0.13400
C991        C  0.41012045  0.17547370  0.25230912     0.24700
C992        C  0.37740005  0.18965442  0.26106517    -0.23500
C993        C  0.36351126  0.22001091  0.24889515     0.19600
C994        C  0.38183752  0.23562162  0.22806759     0.24600
C995        C  0.41430119  0.22106183  0.21915524    -0.23400
C996        C  0.42835430  0.19099763  0.23164758     0.19500
F997        F  0.45956897  0.17617458  0.22352868    -0.13400
F998        F  0.42444875  0.14631546  0.26375191    -0.15700
F999        F  0.36831981  0.26541281  0.21704496    -0.15700
F1000       F  0.33161727  0.23375447  0.25655455    -0.13400
C1001       C  0.19767482  0.34559941  0.23235364     0.24700
C1002       C  0.20725073  0.35152138  0.25845135    -0.23500
C1003       C  0.23644199  0.37406000  0.26371552     0.19600
C1004       C  0.25551442  0.39004401  0.24365579     0.24600
C1005       C  0.24496833  0.38550021  0.21776180    -0.23400
C1006       C  0.21616494  0.36271973  0.21224034     0.19500
F1007       F  0.20506539  0.35799969  0.18748018    -0.13400
F1008       F  0.17051334  0.32318587  0.22619947    -0.15700
F1009       F  0.28448185  0.41022580  0.24966744    -0.15700
F1010       F  0.24573302  0.38231287  0.28834824    -0.13400
C1011       C  0.24813128  0.25761076  0.32771931     0.24700
C1012       C  0.21785319  0.25506397  0.31157162    -0.23500
C1013       C  0.21493374  0.22592661  0.29479907     0.19600
C1014       C  0.24200190  0.20021610  0.29379754     0.24600
C1015       C  0.27286379  0.20316019  0.30944509    -0.23400
C1016       C  0.27547758  0.23210791  0.32653702     0.19500
F1017       F  0.30429582  0.23562637  0.34234943    -0.13400
F1018       F  0.25124667  0.28486821  0.34472848    -0.15700
F1019       F  0.23880217  0.17346521  0.27638751    -0.15700
F1020       F  0.18690519  0.22345216  0.27815617    -0.13400
C1021       C  0.42348382  0.03161585  0.54638750     0.24700
C1022       C  0.44854815  0.01175248  0.56065732    -0.23500
C1023       C  0.47665714  0.02975051  0.57327806     0.19600
C1024       C  0.47767362  0.06683680  0.57363467     0.24600
C1025       C  0.45012636  0.08664106  0.56192282    -0.23400
C1026       C  0.42410837  0.06866693  0.54716513     0.19500
F1027       F  0.39764053  0.08677794  0.53490106    -0.13400
F1028       F  0.39672800  0.01533897  0.53312561    -0.15700
F1029       F  0.50421552  0.08317005  0.58708864    -0.15700
F1030       F  0.50180432  0.01164050  0.58691395    -0.13400
C1031       C  0.42329882  0.24893385  0.47354872     0.24700
C1032       C  0.39531102  0.23019487  0.46130870    -0.23500
C1033       C  0.36735904  0.21668558  0.47676872     0.19600
C1034       C  0.36971238  0.21791820  0.50386174     0.24600
C1035       C  0.40047097  0.23183260  0.51587948    -0.23400
C1036       C  0.42606271  0.24929188  0.50054448     0.19500
F1037       F  0.45540102  0.26424273  0.51163686    -0.13400
F1038       F  0.45021075  0.26363849  0.45952080    -0.15700
F1039       F  0.34391591  0.20182288  0.51815162    -0.15700
F1040       F  0.33927457  0.19948775  0.46576485    -0.13400
C1041       C  0.21104505  0.53372165  0.92553849     0.24700
C1042       C  0.19415893  0.51497166  0.90539052    -0.23500
C1043       C  0.17645121  0.53414383  0.88584380     0.19600
C1044       C  0.17634556  0.57117627  0.88611298     0.24600
C1045       C  0.19491872  0.58992503  0.90543748    -0.23400
C1046       C  0.21197940  0.57079883  0.92532128     0.19500
F1047       F  0.23136917  0.58775932  0.94379017    -0.13400
F1048       F  0.22849847  0.51624953  0.94473311    -0.15700
F1049       F  0.15897444  0.58864082  0.86687930    -0.15700
F1050       F  0.16009625  0.51717014  0.86592035    -0.13400
C1051       C  0.22629966  0.33448885  0.97299675     0.24700
C1052       C  0.25224188  0.35577814  0.96083108    -0.23500
C1053       C  0.28057655  0.36948655  0.97570535     0.19600
C1054       C  0.28011768  0.36633201  0.00264773     0.24600
C1055       C  0.25066764  0.35054350  0.01511233    -0.23400
C1056       C  0.22531469  0.33210856  0.99999890     0.19500
F1057       F  0.19676054  0.31592463  0.01119730    -0.13400
F1058       F  0.19877263  0.32045031  0.95918391    -0.15700
F1059       F  0.30637593  0.38228177  0.01661226    -0.15700
F1060       F  0.30668490  0.38919959  0.96442714    -0.13400
C1061       C  0.41124496  0.06451304  0.84070642     0.24700
C1062       C  0.39147088  0.08352353  0.85918524    -0.23500
C1063       C  0.36803154  0.06495962  0.87562280     0.19600
C1064       C  0.36803045  0.02770670  0.87580824     0.24600
C1065       C  0.39203989  0.00881618  0.85993125    -0.23400
C1066       C  0.41164421  0.02747251  0.84112729     0.19500
F1067       F  0.43359521  0.00992984  0.82454825    -0.13400
F1068       F  0.43270726  0.08187077  0.82371297    -0.15700
F1069       F  0.34777841  0.01045132  0.89360088    -0.15700
F1070       F  0.34869473  0.08262588  0.89375384    -0.13400
C1071       C  0.37089963  0.16500641  0.97162492     0.24700
C1072       C  0.38579494  0.19412886  0.95843104    -0.23500
C1073       C  0.39714184  0.22369726  0.97288496     0.19600
C1074       C  0.39746909  0.22241668  0.00004105     0.24600
C1075       C  0.38587883  0.19172778  0.01317390    -0.23400
C1076       C  0.37067106  0.16395761  0.99866781     0.19500
F1077       F  0.35763931  0.13462393  0.01063173    -0.13400
F1078       F  0.35862600  0.13640663  0.95833492    -0.15700
F1079       F  0.41243607  0.24977067  0.01325798    -0.15700
F1080       F  0.41144683  0.25234720  0.96081559    -0.13400
C1081       C  0.26767427  0.53375536  0.80266403     0.24700
C1082       C  0.30008542  0.51448504  0.80144142    -0.23500
C1083       C  0.33230082  0.53382644  0.79917047     0.19600
C1084       C  0.33207158  0.57098677  0.79878682     0.24600
C1085       C  0.29959146  0.59013242  0.80085495    -0.23400
C1086       C  0.26743220  0.57055115  0.80224270     0.19500
F1087       F  0.23520008  0.58722465  0.80391158    -0.13400
F1088       F  0.23566497  0.51681228  0.80494307    -0.15700
F1089       F  0.36418811  0.58726307  0.79669593    -0.15700
F1090       F  0.36460166  0.51767279  0.79804161    -0.13400
C1091       C  0.41037705  0.36341459  0.81424999     0.24700
C1092       C  0.40296395  0.33175239  0.80080108    -0.23500
C1093       C  0.36988029  0.32819024  0.78803348     0.19600
C1094       C  0.34448444  0.35528779  0.78915403     0.24600
C1095       C  0.35165158  0.38662577  0.80293708    -0.23400
C1096       C  0.38489028  0.39053060  0.81538980     0.19500
F1097       F  0.39223004  0.42002093  0.82950956    -0.13400
F1098       F  0.44188724  0.36778327  0.82697927    -0.15700
F1099       F  0.31321572  0.35107693  0.77611812    -0.15700
F1100       F  0.36240421  0.29902585  0.77363191    -0.13400
C1101       C  0.20505503  0.36710915  0.74436461     0.24700
C1102       C  0.22177066  0.37104851  0.71991507    -0.23500
C1103       C  0.25617149  0.38666953  0.71926422     0.19600
C1104       C  0.26995104  0.40362188  0.74096146     0.24600
C1105       C  0.25114780  0.40309128  0.76438968    -0.23400
C1106       C  0.21955889  0.38337358  0.76636368     0.19500
F1107       F  0.20259310  0.38025334  0.78946137    -0.13400
F1108       F  0.17555258  0.34650405  0.74735996    -0.15700
F1109       F  0.30226085  0.42006156  0.73925928    -0.15700
F1110       F  0.27737866  0.38447217  0.69801443    -0.13400
C1111       C  0.35648026  0.06457903  0.67934969     0.24700
C1112       C  0.32399450  0.08335310  0.67691667    -0.23500
C1113       C  0.29178621  0.06353826  0.67703420     0.19600
C1114       C  0.29253736  0.02627314  0.67678582     0.24600
C1115       C  0.32550855  0.00777080  0.67675300    -0.23400
C1116       C  0.35723283  0.02785119  0.67922610     0.19500
F1117       F  0.38980641  0.01177873  0.68035465    -0.13400
F1118       F  0.38832869  0.08199222  0.68059758    -0.15700
F1119       F  0.26067443  0.00919075  0.67640867    -0.15700
F1120       F  0.25924629  0.07932960  0.67764364    -0.13400
C1121       C  0.38287866  0.20807938  0.76037205     0.24700
C1122       C  0.41043321  0.23205443  0.75409530    -0.23500
C1123       C  0.41635215  0.23985502  0.72771764     0.19600
C1124       C  0.39719130  0.22236996  0.70820356     0.24600
C1125       C  0.37049384  0.19757956  0.71438691    -0.23400
C1126       C  0.36287049  0.19140539  0.74080474     0.19500
F1127       F  0.33604747  0.16906346  0.74782758    -0.13400
F1128       F  0.37609300  0.19956883  0.78539000    -0.15700
F1129       F  0.40614999  0.22858449  0.68319912    -0.15700
F1130       F  0.44070922  0.26470858  0.72059913    -0.13400
C1131       C  0.24818470  0.26284596  0.64423885     0.24700
C1132       C  0.22244177  0.26491827  0.66399056    -0.23500
C1133       C  0.21939241  0.23707015  0.68182170     0.19600
C1134       C  0.24358615  0.20893321  0.68130061     0.24600
C1135       C  0.27130244  0.20826331  0.66291718    -0.23400
C1136       C  0.27267010  0.23467958  0.64378329     0.19500
F1137       F  0.29860775  0.23400324  0.62538959    -0.13400
F1138       F  0.25194925  0.28981484  0.62707313    -0.15700
F1139       F  0.24198829  0.18417649  0.70031822    -0.15700
F1140       F  0.19517237  0.23903070  0.70135959    -0.13400
C1141       C  0.25177961  0.52987918  0.60083335     0.24700
C1142       C  0.24638668  0.51115614  0.57757625    -0.23500
C1143       C  0.24624601  0.52993017  0.55414060     0.19600
C1144       C  0.24829961  0.56682288  0.55398399     0.24600
C1145       C  0.25068809  0.58590261  0.57727388    -0.23400
C1146       C  0.25391051  0.56708776  0.60067870     0.19500
F1147       F  0.25578360  0.58469039  0.62354537    -0.13400
F1148       F  0.25178786  0.51256613  0.62384604    -0.15700
F1149       F  0.24592828  0.58400119  0.53098359    -0.15700
F1150       F  0.24225324  0.51262997  0.53129224    -0.13400
C1151       C  0.27827477  0.37986442  0.47169330     0.24700
C1152       C  0.25302467  0.35927746  0.45812382    -0.23500
C1153       C  0.23189712  0.33502985  0.47214310     0.19600
C1154       C  0.23169121  0.33568676  0.49919438     0.24600
C1155       C  0.25231001  0.36087081  0.51271246    -0.23400
C1156       C  0.27781282  0.38078256  0.49881963     0.19500
F1157       F  0.29928996  0.40439161  0.51117508    -0.13400
F1158       F  0.30033423  0.40242575  0.45887015    -0.15700
F1159       F  0.20845831  0.31423691  0.51197267    -0.15700
F1160       F  0.20852676  0.31327563  0.45973583    -0.13400
C1161       C  0.58252435  0.85849306  0.41256186     0.24700
C1162       C  0.60114991  0.86612032  0.38964969    -0.23500
C1163       C  0.58208927  0.86963738  0.36638394     0.19600
C1164       C  0.54459302  0.86885757  0.36646677     0.24600
C1165       C  0.52585501  0.86413261  0.38980268    -0.23400
C1166       C  0.54517763  0.85720958  0.41260353     0.19500
F1167       F  0.52786109  0.85126022  0.43528131    -0.13400
F1168       F  0.60044203  0.85426795  0.43522217    -0.15700
F1169       F  0.52676030  0.87639535  0.34426410    -0.15700
F1170       F  0.59951042  0.87767810  0.34410887    -0.13400
C1171       C  0.04932913  0.64851085  0.41186436     0.24700
C1172       C  0.03039366  0.68012814  0.41675657    -0.23500
C1173       C  0.04987612  0.71084904  0.42325827     0.19600
C1174       C  0.08744292  0.71044269  0.42325862     0.24600
C1175       C  0.10633088  0.67928810  0.41680233    -0.23400
C1176       C  0.08678154  0.64801988  0.41212981     0.19500
F1177       F  0.10380185  0.61715269  0.40646070    -0.13400
F1178       F  0.03170352  0.61818622  0.40563482    -0.15700
F1179       F  0.10520654  0.74110465  0.42828733    -0.15700
F1180       F  0.03273903  0.74191007  0.42812573    -0.13400
C1181       C  0.54429997  0.87959870  0.04827401     0.24700
C1182       C  0.52523457  0.91057414  0.05479942    -0.23500
C1183       C  0.54430250  0.94247623  0.05805531     0.19600
C1184       C  0.58173591  0.94262925  0.05744976     0.24600
C1185       C  0.60087902  0.91093484  0.05338429    -0.23400
C1186       C  0.58174738  0.87969470  0.04780607     0.19500
F1187       F  0.59914259  0.84856845  0.04366063    -0.13400
F1188       F  0.52689402  0.84854894  0.04391950    -0.15700
F1189       F  0.59914284  0.97346525  0.06259410    -0.15700
F1190       F  0.52696393  0.97321975  0.06356874    -0.13400
C1191       C  0.05606597  0.71822432  0.11300431     0.24700
C1192       C  0.03677550  0.72264531  0.08985186    -0.23500
C1193       C  0.05557093  0.73032673  0.06696347     0.19600
C1194       C  0.09292401  0.72915105  0.06658056     0.24600
C1195       C  0.11213833  0.72052358  0.08906916    -0.23400
C1196       C  0.09360732  0.71723530  0.11261993     0.19500
F1197       F  0.11147632  0.70940374  0.13475124    -0.13400
F1198       F  0.03871701  0.71116172  0.13548644    -0.15700
F1199       F  0.11026982  0.73439189  0.04382827    -0.15700
F1200       F  0.03777726  0.73646278  0.04448896    -0.13400
C1201       C  0.58726532  0.78126510  0.16582648     0.24700
C1202       C  0.60575687  0.81275437  0.17255363    -0.23500
C1203       C  0.58512739  0.84238490  0.17989426     0.19600
C1204       C  0.54812943  0.84063418  0.18138850     0.24600
C1205       C  0.52942595  0.80894547  0.17606269    -0.23400
C1206       C  0.54964938  0.77935825  0.16765601     0.19500
F1207       F  0.53345124  0.74958088  0.15878347    -0.13400
F1208       F  0.60451513  0.75325838  0.15512964    -0.15700
F1209       F  0.53034863  0.87139355  0.18616815    -0.15700
F1210       F  0.60070345  0.87442861  0.18415406    -0.13400
C1211       C  0.79742175  0.74862400  0.15916958     0.24700
C1212       C  0.78702388  0.71264524  0.15712900    -0.23500
C1213       C  0.75159382  0.70625076  0.14859343     0.19600
C1214       C  0.72635882  0.73367202  0.14763856     0.24600
C1215       C  0.73540947  0.76843684  0.15546611    -0.23400
C1216       C  0.77216519  0.77580674  0.15869276     0.19500
F1217       F  0.78503895  0.80914813  0.16098686    -0.13400
F1218       F  0.83196374  0.75901099  0.16076974    -0.15700
F1219       F  0.69352202  0.72607514  0.13780528    -0.15700
F1220       F  0.74129281  0.67402084  0.13965309    -0.13400
C1221       C  0.76632931  0.86844363  0.24109820     0.24700
C1222       C  0.74850576  0.89511501  0.25512061    -0.23500
C1223       C  0.71604199  0.90849736  0.24546610     0.19600
C1224       C  0.70072487  0.89422121  0.22311202     0.24600
C1225       C  0.71716262  0.86565290  0.21017537    -0.23400
C1226       C  0.75019379  0.85299351  0.21934884     0.19500
F1227       F  0.76634812  0.82495972  0.20787020    -0.13400
F1228       F  0.80020424  0.85882139  0.24735792    -0.15700
F1229       F  0.66977037  0.90845884  0.21399803    -0.15700
F1230       F  0.69951018  0.93602659  0.25748248    -0.13400
C1231       C  0.04492852  0.73969165  0.29246897     0.24700
C1232       C  0.02453518  0.76988096  0.29912060    -0.23500
C1233       C  0.04331009  0.80075901  0.30663879     0.19600
C1234       C  0.08094503  0.80176644  0.30628806     0.24600
C1235       C  0.10113804  0.77160088  0.29894226    -0.23400
C1236       C  0.08213423  0.74047578  0.29257874     0.19500
F1237       F  0.09968561  0.70957897  0.28781442    -0.13400
F1238       F  0.02883728  0.70815740  0.28732390    -0.15700
F1239       F  0.09679723  0.83149291  0.31548839    -0.15700
F1240       F  0.02608451  0.82917004  0.31676631    -0.13400
C1241       C  0.89017276  0.74046059  0.24363907     0.24700
C1242       C  0.91189691  0.72052144  0.26039479    -0.23500
C1243       C  0.91896446  0.68496626  0.25441886     0.19600
C1244       C  0.90370428  0.66920637  0.23254818     0.24600
C1245       C  0.87988933  0.68836675  0.21654827    -0.23400
C1246       C  0.87330945  0.72426266  0.22245382     0.19500
F1247       F  0.84996526  0.74360882  0.20822806    -0.13400
F1248       F  0.88659488  0.77596416  0.24703458    -0.15700
F1249       F  0.91313454  0.63537824  0.22667602    -0.15700
F1250       F  0.94162426  0.66574639  0.26944054    -0.13400
C1251       C  0.90183385  0.85099152  0.32220440     0.24700
C1252       C  0.89504355  0.81768585  0.31081111    -0.23500
C1253       C  0.86052003  0.81129042  0.30085394     0.19600
C1254       C  0.83457069  0.83776803  0.30070977     0.24600
C1255       C  0.84217225  0.87214435  0.30999871    -0.23400
C1256       C  0.87575970  0.87776616  0.32190619     0.19500
F1257       F  0.88326665  0.90882316  0.33402339    -0.13400
F1258       F  0.93349676  0.85770352  0.33418607    -0.15700
F1259       F  0.80237911  0.82899379  0.29055593    -0.15700
F1260       F  0.85145680  0.77985847  0.29003419    -0.13400
C1261       C  0.09153901  0.73470421  0.91925431     0.24700
C1262       C  0.10967535  0.73110666  0.89563147    -0.23500
C1263       C  0.08991660  0.73196508  0.87247889     0.19600
C1264       C  0.05229617  0.73200630  0.87319728     0.24600
C1265       C  0.03420576  0.73083141  0.89709568    -0.23400
C1266       C  0.05419298  0.73468056  0.92000146     0.19500
F1267       F  0.03768286  0.73607221  0.94336826    -0.13400
F1268       F  0.11004305  0.73616387  0.94184587    -0.15700
F1269       F  0.03382445  0.73005281  0.85062921    -0.15700
F1270       F  0.10679100  0.72927046  0.84931514    -0.13400
C1271       C  0.85970592  0.70708096  0.98112540     0.24700
C1272       C  0.88382661  0.72914602  0.96779510    -0.23500
C1273       C  0.90262239  0.75518945  0.98186249     0.19600
C1274       C  0.90239202  0.75448009  0.00900567     0.24600
C1275       C  0.88387954  0.72736313  0.02213805    -0.23400
C1276       C  0.85979982  0.70611303  0.00809658     0.19500
F1277       F  0.83964064  0.68120383  0.02024520    -0.13400
F1278       F  0.83929222  0.68320367  0.96810837    -0.15700
F1279       F  0.92397116  0.77722056  0.02213064    -0.15700
F1280       F  0.92491152  0.77814583  0.96962878    -0.13400
C1281       C  0.58840803  0.89590223  0.92255522     0.24700
C1282       C  0.60742211  0.92445634  0.91161815    -0.23500
C1283       C  0.58837461  0.95494722  0.90401170     0.19600
C1284       C  0.55095586  0.95541784  0.90486525     0.24600
C1285       C  0.53188863  0.92507729  0.91266787    -0.23400
C1286       C  0.55096333  0.89611464  0.92291743     0.19500
F1287       F  0.53348327  0.86693331  0.93172208    -0.13400
F1288       F  0.60580379  0.86652993  0.93111543    -0.15700
F1289       F  0.53348010  0.98455880  0.89598076    -0.15700
F1290       F  0.60568982  0.98348157  0.89402687    -0.13400
C1291       C  0.78018914  0.88981400  0.96739383     0.24700
C1292       C  0.75817458  0.86637126  0.95334168    -0.23500
C1293       C  0.74044914  0.83914473  0.96687411     0.19600
C1294       C  0.73982353  0.83912288  0.99397510     0.24600
C1295       C  0.75669992  0.86648537  0.00798539    -0.23400
C1296       C  0.77936569  0.88996303  0.99449630     0.19500
F1297       F  0.79741628  0.91588707  0.00723756    -0.13400
F1298       F  0.79889552  0.91565276  0.95507820    -0.15700
F1299       F  0.71964038  0.81443678  0.00632699    -0.15700
F1300       F  0.72068526  0.81464272  0.95394897    -0.13400
C1301       C  0.58693526  0.86094175  0.57331239     0.24700
C1302       C  0.60527210  0.87733841  0.59378518    -0.23500
C1303       C  0.58573754  0.88966906  0.61525664     0.19600
C1304       C  0.54816847  0.88831134  0.61510970     0.24600
C1305       C  0.52985878  0.87503715  0.59336338    -0.23400
C1306       C  0.54960855  0.85984335  0.57306571     0.19500
F1307       F  0.53274816  0.84601312  0.55209052    -0.13400
F1308       F  0.60516872  0.84805795  0.55262630    -0.15700
F1309       F  0.52980495  0.90340247  0.63492999    -0.15700
F1310       F  0.60262335  0.90647970  0.63502626    -0.13400
C1311       C  0.72525394  0.84247423  0.50222802     0.24700
C1312       C  0.74756441  0.86717276  0.51481017    -0.23500
C1313       C  0.77361746  0.88508613  0.50006531     0.19600
C1314       C  0.77377967  0.88233669  0.47305650     0.24600
C1315       C  0.74708094  0.86267972  0.46023262    -0.23400
C1316       C  0.72478525  0.84044630  0.47512311     0.19500
F1317       F  0.69976912  0.81963795  0.46357484    -0.13400
F1318       F  0.70089025  0.82336366  0.51584198    -0.15700
F1319       F  0.79783410  0.90179465  0.45941335    -0.15700
F1320       F  0.79688953  0.90784795  0.51155459    -0.13400
C1321       C  0.05678843  0.72170433  0.55937203     0.24700
C1322       C  0.03770124  0.69193727  0.56812323    -0.23500
C1323       C  0.05605563  0.66025479  0.57330762     0.19600
C1324       C  0.09325016  0.65886743  0.57112280     0.24600
C1325       C  0.11265937  0.68924328  0.56373855    -0.23400
C1326       C  0.09400121  0.72043680  0.55732610     0.19500
F1327       F  0.11179336  0.75024193  0.55012609    -0.13400
F1328       F  0.03970891  0.75274144  0.55428599    -0.15700
F1329       F  0.11028233  0.62839604  0.57781372    -0.15700
F1330       F  0.03807863  0.63080229  0.58105888    -0.13400
C1331       C  0.89621027  0.76263770  0.50278162     0.24700
C1332       C  0.87929436  0.73727590  0.51855873    -0.23500
C1333       C  0.85600263  0.71259009  0.50689555     0.19600
C1334       C  0.85455588  0.70959707  0.47986183     0.24600
C1335       C  0.87642545  0.73124499  0.46422066    -0.23400
C1336       C  0.89426036  0.75999953  0.47584778     0.19500
F1337       F  0.91319828  0.78332312  0.46127062    -0.13400
F1338       F  0.91805064  0.78756867  0.51330644    -0.15700
F1339       F  0.83513123  0.68280352  0.46931220    -0.15700
F1340       F  0.83848542  0.68816873  0.52146206    -0.13400
C1341       C  0.59107986  0.85066728  0.78220402     0.24700
C1342       C  0.61154890  0.81964565  0.78596090    -0.23500
C1343       C  0.59262095  0.78731412  0.78909547     0.19600
C1344       C  0.55495953  0.78667232  0.78997358     0.24600
C1345       C  0.53474552  0.81815369  0.78719886    -0.23400
C1346       C  0.55380076  0.84993795  0.78273347     0.19500
F1347       F  0.53625207  0.88134880  0.78038883    -0.13400
F1348       F  0.60730836  0.88275979  0.77982521    -0.15700
F1349       F  0.53924208  0.75520794  0.79536077    -0.15700
F1350       F  0.60959311  0.75608014  0.79295504    -0.13400
C1351       C  0.77394871  0.77464239  0.79538180     0.24700
C1352       C  0.73869659  0.77130919  0.80451758    -0.23500
C1353       C  0.72929781  0.74033446  0.81831151     0.19600
C1354       C  0.75417637  0.71294826  0.82182836     0.24600
C1355       C  0.78895682  0.71581339  0.81159588    -0.23400
C1356       C  0.79851206  0.74716687  0.79850153     0.19500
F1357       F  0.83121106  0.75106275  0.78747209    -0.13400
F1358       F  0.78480771  0.80397539  0.78251968    -0.15700
F1359       F  0.74434458  0.68392911  0.83564631    -0.15700
F1360       F  0.69627198  0.73676085  0.82900630    -0.13400
C1361       C  0.76862404  0.87221738  0.71655891     0.24700
C1362       C  0.76102065  0.90805050  0.71110847    -0.23500
C1363       C  0.73565584  0.92572865  0.72688831     0.19600
C1364       C  0.71953259  0.90839198  0.74785559     0.24600
C1365       C  0.72704072  0.87262271  0.75301229    -0.23400
C1366       C  0.75097864  0.85450385  0.73673349     0.19500
F1367       F  0.75587627  0.81909691  0.73938791    -0.13400
F1368       F  0.79342542  0.85414869  0.70264057    -0.15700
F1369       F  0.69560349  0.92629804  0.76272718    -0.15700
F1370       F  0.72521727  0.95944255  0.72154625    -0.13400
C1371       C  0.05117639  0.79022804  0.69589435     0.24700
C1372       C  0.02788343  0.77933649  0.67600471    -0.23500
C1373       C  0.04270671  0.77051910  0.65190890     0.19600
C1374       C  0.07999398  0.76825743  0.64875139     0.24600
C1375       C  0.10343567  0.77374395  0.66998003    -0.23400
C1376       C  0.08839073  0.78818156  0.69273192     0.19500
F1377       F  0.10975181  0.79970476  0.71227432    -0.13400
F1378       F  0.03786673  0.80240370  0.71865930    -0.15700
F1379       F  0.09254119  0.76226243  0.62456777    -0.15700
F1380       F  0.02121695  0.76257948  0.63155198    -0.13400
C1381       C  0.88579268  0.71790218  0.72650077     0.24700
C1382       C  0.92201966  0.72892764  0.72784710    -0.23500
C1383       C  0.93987019  0.72592788  0.75198399     0.19600
C1384       C  0.92275803  0.71012100  0.77314541     0.24600
C1385       C  0.88780251  0.69735557  0.77077097    -0.23400
C1386       C  0.86920919  0.70185829  0.74751553     0.19500
F1387       F  0.83460822  0.69104056  0.74527542    -0.13400
F1388       F  0.86592397  0.72330948  0.70483812    -0.15700
F1389       F  0.94044738  0.70692840  0.79596163    -0.15700
F1390       F  0.97291528  0.73962410  0.75601658    -0.13400
C1391       C  0.88827453  0.83535818  0.65068737     0.24700
C1392       C  0.91088558  0.83465128  0.67241254    -0.23500
C1393       C  0.90953616  0.86256857  0.69033794     0.19600
C1394       C  0.88550074  0.89046146  0.68692760     0.24600
C1395       C  0.86168621  0.89044382  0.66585722    -0.23400
C1396       C  0.86342067  0.86291003  0.64761851     0.19500
F1397       F  0.84062582  0.86238785  0.62716477    -0.13400
F1398       F  0.88839089  0.80810659  0.63353977    -0.15700
F1399       F  0.88393850  0.91634921  0.70515419    -0.15700
F1400       F  0.93018623  0.86173113  0.71196047    -0.13400
C1401       C  0.65960660  0.06509212  0.40492153     0.24700
C1402       C  0.68979246  0.08362350  0.41411446    -0.23500
C1403       C  0.71816514  0.06440316  0.42525388     0.19600
C1404       C  0.71781556  0.02740697  0.42510365     0.24600
C1405       C  0.68942577  0.00884229  0.41337366    -0.23400
C1406       C  0.65951515  0.02801989  0.40438824     0.19500
F1407       F  0.63094719  0.01111616  0.39376665    -0.13400
F1408       F  0.63106360  0.08272597  0.39489298    -0.15700
F1409       F  0.74650114  0.00990471  0.43499731    -0.15700
F1410       F  0.74744052  0.08124721  0.43486574    -0.13400
C1411       C  0.58096732  0.23428228  0.40219590     0.24700
C1412       C  0.60073702  0.22119160  0.38113491    -0.23500
C1413       C  0.58245973  0.21093971  0.35852012     0.19600
C1414       C  0.54482550  0.20989990  0.35819038     0.24600
C1415       C  0.52533186  0.21954079  0.38034928    -0.23400
C1416       C  0.54359678  0.23392566  0.40164007     0.19500
F1417       F  0.52516557  0.24545063  0.42267035    -0.13400
F1418       F  0.59785674  0.24527155  0.42403774    -0.15700
F1419       F  0.52774467  0.19589724  0.33738063    -0.15700
F1420       F  0.60087447  0.19826231  0.33786630    -0.13400
C1421       C  0.95024390  0.52573673  0.04536907     0.24700
C1422       C  0.96474977  0.50553211  0.06572393    -0.23500
C1423       C  0.98297617  0.52306431  0.08579584     0.19600
C1424       C  0.98308170  0.56006763  0.08708655     0.24600
C1425       C  0.96500373  0.58027087  0.06825843    -0.23400
C1426       C  0.95019675  0.56277627  0.04669765     0.19500
F1427       F  0.93320757  0.58126382  0.02779564    -0.13400
F1428       F  0.93348212  0.50980669  0.02515715    -0.15700
F1429       F  0.99876574  0.57586105  0.10778965    -0.15700
F1430       F  0.99883550  0.50441792  0.10512169    -0.13400
C1431       C  0.05114430  0.35219341  0.06018900     0.24700
C1432       C  0.03163431  0.35902467  0.08292998    -0.23500
C1433       C  0.05009034  0.36038175  0.10667162     0.19600
C1434       C  0.08766684  0.35965594  0.10710573     0.24600
C1435       C  0.10698470  0.35848376  0.08381754    -0.23400
C1436       C  0.08850253  0.35259167  0.06054859     0.19500
F1437       F  0.10655644  0.34962791  0.03784718    -0.13400
F1438       F  0.03409723  0.34782528  0.03720207    -0.15700
F1439       F  0.10502707  0.36407853  0.12994760    -0.15700
F1440       F  0.03215250  0.36596901  0.12912022    -0.13400
C1441       C  0.87950962  0.52576813  0.37767497     0.24700
C1442       C  0.89014186  0.50597044  0.39945587    -0.23500
C1443       C  0.89656187  0.52387942  0.42286472     0.19600
C1444       C  0.89537668  0.56086477  0.42393563     0.24600
C1445       C  0.88859136  0.58086202  0.40149368    -0.23400
C1446       C  0.87886944  0.56297724  0.37866295     0.19500
F1447       F  0.87169901  0.58139826  0.35672595    -0.13400
F1448       F  0.87266011  0.50937354  0.35483616    -0.15700
F1449       F  0.90264594  0.57717601  0.44675902    -0.15700
F1450       F  0.90564511  0.50569145  0.44455799    -0.13400
C1451       C  0.04761471  0.43884781  0.39266733     0.24700
C1452       C  0.02829748  0.41175088  0.40513828    -0.23500
C1453       C  0.04714270  0.38635681  0.41975324     0.19600
C1454       C  0.08460989  0.38639799  0.42013107     0.24600
C1455       C  0.10388263  0.41230976  0.40642629    -0.23400
C1456       C  0.08501438  0.43935126  0.39356263     0.19500
F1457       F  0.10272101  0.46517775  0.38047874    -0.13400
F1458       F  0.03044414  0.46435844  0.37888852    -0.15700
F1459       F  0.10201347  0.36053481  0.43339813    -0.15700
F1460       F  0.02946667  0.36044230  0.43274725    -0.13400
C1461       C  0.58960261  0.15212919  0.05612436     0.24700
C1462       C  0.60663520  0.18527787  0.05860536    -0.23500
C1463       C  0.58539120  0.21611215  0.05956013     0.19600
C1464       C  0.54801628  0.21355969  0.06042154     0.24600
C1465       C  0.53118741  0.18010924  0.06068889    -0.23400
C1466       C  0.55227846  0.14957836  0.05716293     0.19500
F1467       F  0.53698523  0.11695665  0.05592858    -0.13400
F1468       F  0.60904077  0.12181974  0.05405555    -0.15700
F1469       F  0.52852350  0.24385474  0.06242602    -0.15700
F1470       F  0.60067733  0.24872258  0.06113647    -0.13400
C1471       C  0.74266354  0.06546053  0.10236168     0.24700
C1472       C  0.74516359  0.08453463  0.07906874    -0.23500
C1473       C  0.74862525  0.06582240  0.05570597     0.19600
C1474       C  0.74605817  0.02890531  0.05532452     0.24600
C1475       C  0.74043419  0.00987869  0.07835713    -0.23400
C1476       C  0.74016148  0.02833823  0.10200667     0.19500
F1477       F  0.73426595  0.01085304  0.12453631    -0.13400
F1478       F  0.73935304  0.08280789  0.12523760    -0.15700
F1479       F  0.74750716  0.01187935  0.03220429    -0.15700
F1480       F  0.75284158  0.08342795  0.03300713    -0.13400
C1481       C  0.03801975  0.30209201  0.28051305     0.24700
C1482       C  0.01712539  0.31579974  0.30090317    -0.23500
C1483       C  0.03399047  0.32320934  0.32448403     0.19600
C1484       C  0.07127627  0.31978201  0.32699188     0.24600
C1485       C  0.09310154  0.31132140  0.30528621    -0.23400
C1486       C  0.07538501  0.29954095  0.28276030     0.19500
F1487       F  0.09426585  0.28618709  0.26255212    -0.13400
F1488       F  0.02227159  0.29167707  0.25808871    -0.15700
F1489       F  0.08531880  0.32372428  0.35100239    -0.15700
F1490       F  0.01469902  0.33550642  0.34485450    -0.13400
C1491       C  0.83243533  0.05836186  0.30616145     0.24700
C1492       C  0.80165814  0.07892851  0.30043562    -0.23500
C1493       C  0.77006746  0.06065187  0.29363165     0.19600
C1494       C  0.76948656  0.02398292  0.29131227     0.24600
C1495       C  0.79999922  0.00319705  0.29699597    -0.23400
C1496       C  0.83151910  0.02110682  0.30463673     0.19500
F1497       F  0.86088913  0.00317549  0.31270159    -0.13400
F1498       F  0.86277888  0.07326999  0.31547915    -0.15700
F1499       F  0.73766142  0.00852698  0.28525588    -0.15700
F1500       F  0.73862336  0.07830133  0.29036898    -0.13400
C1501       C  0.87748333  0.26083837  0.32687778     0.24700
C1502       C  0.90428291  0.26052301  0.30787373    -0.23500
C1503       C  0.90835936  0.23072245  0.29194377     0.19600
C1504       C  0.88422984  0.20260098  0.29361855     0.24600
C1505       C  0.85567782  0.20394875  0.31139258    -0.23400
C1506       C  0.85338198  0.23256563  0.32871483     0.19500
F1507       F  0.82686756  0.23384773  0.34664871    -0.13400
F1508       F  0.87245945  0.28997153  0.34187379    -0.15700
F1509       F  0.88690688  0.17575758  0.27622103    -0.15700
F1510       F  0.93380487  0.23040021  0.27317359    -0.13400
C1511       C  0.58570139  0.29660651  0.16928460     0.24700
C1512       C  0.60529610  0.26664483  0.17792861    -0.23500
C1513       C  0.58547500  0.23678633  0.18595200     0.19600
C1514       C  0.54818117  0.23733057  0.18668276     0.24600
C1515       C  0.52852255  0.26791317  0.17971223    -0.23400
C1516       C  0.54805499  0.29729434  0.17032873     0.19500
F1517       F  0.53125052  0.32557759  0.15965618    -0.13400
F1518       F  0.60200136  0.32413192  0.15729183    -0.15700
F1519       F  0.53117591  0.20651228  0.19253713    -0.15700
F1520       F  0.60214145  0.20577493  0.19178827    -0.13400
C1521       C  0.74974470  0.23892110  0.22953597     0.24700
C1522       C  0.72014513  0.22202904  0.21794294    -0.23500
C1523       C  0.70737195  0.19028084  0.22869305     0.19600
C1524       C  0.72408639  0.17522766  0.25015723     0.24600
C1525       C  0.75423910  0.19139369  0.26153383    -0.23400
C1526       C  0.76648660  0.22388019  0.25139087     0.19500
F1527       F  0.79500192  0.24060383  0.26221193    -0.13400
F1528       F  0.76177206  0.27035553  0.22015142    -0.15700
F1529       F  0.71042991  0.14473203  0.26003715    -0.15700
F1530       F  0.67855953  0.17358174  0.21823538    -0.13400
C1531       C  0.79467285  0.52497322  0.16491191     0.24700
C1532       C  0.82629381  0.50510200  0.16951228    -0.23500
C1533       C  0.85741212  0.52393697  0.17656552     0.19600
C1534       C  0.85710839  0.56038828  0.17961315     0.24600
C1535       C  0.82613941  0.58072121  0.17447358    -0.23400
C1536       C  0.79450859  0.56228884  0.16759051     0.19500
F1537       F  0.76382335  0.57982922  0.16194655    -0.13400
F1538       F  0.76461650  0.50930506  0.15568791    -0.15700
F1539       F  0.88878747  0.57629098  0.18545330    -0.15700
F1540       F  0.88943876  0.50717465  0.17928802    -0.13400
C1541       C  0.85643428  0.38578989  0.22724829     0.24700
C1542       C  0.87582977  0.39176520  0.20454108    -0.23500
C1543       C  0.91164103  0.38106210  0.20311436     0.19600
C1544       C  0.92864448  0.36620098  0.22472361     0.24600
C1545       C  0.91009897  0.36280615  0.24858785    -0.26600
C1546       C  0.87317820  0.37137251  0.24890112     0.19500
F1547       F  0.85295104  0.36543338  0.27029130    -0.13400
F1548       F  0.82110421  0.39424932  0.22849836    -0.15700
F1549       F  0.96238720  0.35389875  0.22133975    -0.15700
F1550       F  0.93038008  0.38559056  0.18086385    -0.13400
C1551       C  0.78108794  0.34712789  0.14389331     0.24700
C1552       C  0.77898364  0.37676857  0.16031454    -0.23500
C1553       C  0.75316686  0.37719541  0.18014975     0.19600
C1554       C  0.72953050  0.34887789  0.18314686     0.24600
C1555       C  0.73114948  0.31961457  0.16639365    -0.23400
C1556       C  0.75752331  0.31862498  0.14704219     0.19500
F1557       F  0.76005004  0.29046279  0.13081912    -0.13400
F1558       F  0.80555740  0.34600827  0.12449667    -0.15700
F1559       F  0.70590717  0.34943685  0.20311054    -0.15700
F1560       F  0.75173351  0.40426907  0.19742458    -0.13400
C1561       C  0.94084585  0.52663932  0.92657358     0.24700
C1562       C  0.95769796  0.50957630  0.90562239    -0.23500
C1563       C  0.97875078  0.52992164  0.88863350     0.19600
C1564       C  0.97950283  0.56690372  0.89076330     0.24600
C1565       C  0.96005534  0.58423080  0.91039005    -0.23400
C1566       C  0.94205595  0.56355450  0.92896238     0.19500
F1567       F  0.92330268  0.57904358  0.94842215    -0.13400
F1568       F  0.92130195  0.50789691  0.94398800    -0.15700
F1569       F  0.99757455  0.58577671  0.87262230    -0.15700
F1570       F  0.99731845  0.51427042  0.86915851    -0.13400
C1571       C  0.05535393  0.37447012  0.86374891     0.24700
C1572       C  0.03486573  0.37194447  0.88650828    -0.23500
C1573       C  0.05250333  0.36689471  0.91025979     0.19600
C1574       C  0.08972194  0.36862689  0.91169855     0.24600
C1575       C  0.11013853  0.37461284  0.88933478    -0.23400
C1576       C  0.09287223  0.37542060  0.86514415     0.19500
F1577       F  0.11200756  0.38024822  0.84310748    -0.13400
F1578       F  0.03921236  0.37921222  0.84048290    -0.15700
F1579       F  0.10568110  0.36615486  0.93523190    -0.15700
F1580       F  0.03360430  0.36239583  0.93245027    -0.13400
C1581       C  0.86120334  0.38398651  0.99441543     0.24700
C1582       C  0.88647461  0.36372114  0.00814855    -0.23500
C1583       C  0.90739135  0.33890621  0.99449203     0.19600
C1584       C  0.90703335  0.33848691  0.96734841     0.24600
C1585       C  0.88549456  0.36267949  0.95356002    -0.23400
C1586       C  0.86046188  0.38320860  0.96739433     0.19500
F1587       F  0.83791726  0.40559322  0.95480083    -0.13400
F1588       F  0.83958981  0.40724622  0.00701597    -0.15700
F1589       F  0.93104986  0.31766203  0.95476346    -0.15700
F1590       F  0.93159378  0.31835245  0.00712979    -0.13400
C1591       C  0.65282010  0.07127983  0.58102918     0.24700
C1592       C  0.67798645  0.09113437  0.56685032    -0.23500
C1593       C  0.70152465  0.07324177  0.55005002     0.19600
C1594       C  0.70242990  0.03622518  0.54951995     0.24600
C1595       C  0.68010634  0.01642127  0.56599262    -0.23400
C1596       C  0.65420694  0.03423991  0.58088686     0.19500
F1597       F  0.63142727  0.01594427  0.59640308    -0.13400
F1598       F  0.62827520  0.08758540  0.59633259    -0.15700
F1599       F  0.72724980  0.01996955  0.53441167    -0.15700
F1600       F  0.72527714  0.09142527  0.53524239    -0.13400
C1601       C  0.54385842  0.25395532  0.59780601     0.24700
C1602       C  0.52541267  0.22920595  0.61326049    -0.23500
C1603       C  0.54485071  0.21001233  0.63192231     0.19600
C1604       C  0.58228311  0.21151160  0.63238825     0.24600
C1605       C  0.60097375  0.23183301  0.61397557    -0.23400
C1606       C  0.58142027  0.25523019  0.59814440     0.19500
F1607       F  0.59849823  0.27651319  0.58095182    -0.13400
F1608       F  0.52595731  0.27420952  0.58037178    -0.15700
F1609       F  0.60025563  0.19054306  0.64934683    -0.15700
F1610       F  0.52793049  0.18730069  0.64822304    -0.13400
C1611       C  0.70258561  0.25335008  0.50041084     0.24700
C1612       C  0.72697532  0.23499459  0.51610422    -0.23500
C1613       C  0.75737949  0.21947459  0.50470804     0.19600
C1614       C  0.76094215  0.21871220  0.47770028     0.24600
C1615       C  0.73442145  0.23399339  0.46176867    -0.23400
C1616       C  0.70661310  0.25349488  0.47352603     0.19500
F1617       F  0.68077081  0.26917007  0.45901850    -0.13400
F1618       F  0.67314397  0.26871302  0.51102255    -0.15700
F1619       F  0.78859634  0.20031177  0.46714944    -0.15700
F1620       F  0.78128668  0.20131290  0.51944074    -0.13400
C1621       C  0.58893123  0.14641858  0.90877578     0.24700
C1622       C  0.60678349  0.17815579  0.91499928    -0.23500
C1623       C  0.58639584  0.20747599  0.92327782     0.19600
C1624       C  0.54890494  0.20651571  0.92202397     0.24600
C1625       C  0.53123030  0.17603878  0.91277384    -0.23400
C1626       C  0.55155890  0.14530413  0.90787310     0.19500
F1627       F  0.53550887  0.11466293  0.90038459    -0.13400
F1628       F  0.60751063  0.11704241  0.90163187    -0.15700
F1629       F  0.53016395  0.23610740  0.92843322    -0.15700
F1630       F  0.60268262  0.23782422  0.93114359    -0.13400
C1631       C  0.75501012  0.06778574  0.90851144     0.24700
C1632       C  0.74839532  0.08737508  0.88588044    -0.23500
C1633       C  0.74646181  0.06938008  0.86207860     0.19600
C1634       C  0.74687823  0.03217705  0.86138570     0.24600
C1635       C  0.74911851  0.01263265  0.88451216    -0.23400
C1636       C  0.75553148  0.03081086  0.90780766     0.19500
F1637       F  0.76020863  0.01276481  0.93027638    -0.13400
F1638       F  0.75892096  0.08434089  0.93166772    -0.15700
F1639       F  0.74188160  0.01547448  0.83841839    -0.15700
F1640       F  0.74081480  0.08754540  0.83979654    -0.13400
C1641       C  0.78337599  0.20692557  0.97129411     0.24700
C1642       C  0.76072841  0.23048594  0.95782705    -0.23500
C1643       C  0.74371512  0.25769667  0.97183022     0.19600
C1644       C  0.74465616  0.25790656  0.99887844     0.24600
C1645       C  0.76202768  0.23052863  0.01247070    -0.23400
C1646       C  0.78393869  0.20687255  0.99846481     0.19500
F1647       F  0.80230322  0.18083208  0.01084274    -0.13400
F1648       F  0.80136751  0.18103741  0.95845301    -0.15700
F1649       F  0.72527099  0.28273322  0.01175348    -0.15700
F1650       F  0.72294274  0.28194508  0.95950274    -0.13400
C1651       C  0.05603676  0.36402712  0.66464712     0.24700
C1652       C  0.03710981  0.33144730  0.66419505    -0.23500
C1653       C  0.05766877  0.29973731  0.66428645     0.19600
C1654       C  0.09535247  0.30102496  0.66539811     0.24600
C1655       C  0.11330617  0.33359875  0.66707116    -0.23400
C1656       C  0.09333777  0.36501571  0.66623102     0.19500
F1657       F  0.11007757  0.39697190  0.66724739    -0.13400
F1658       F  0.03816703  0.39542293  0.66410644    -0.15700
F1659       F  0.11428506  0.27028351  0.66599799    -0.15700
F1660       F  0.04223403  0.26730744  0.66389387    -0.13400
C1661       C  0.78142041  0.03729383  0.67484787     0.24700
C1662       C  0.81336309  0.01813147  0.67088739    -0.23500
C1663       C  0.84529165  0.03758140  0.66674975     0.19600
C1664       C  0.84496969  0.07492184  0.66700536     0.24600
C1665       C  0.81267687  0.09372069  0.67125128    -0.23400
C1666       C  0.78110993  0.07389802  0.67515098     0.19500
F1667       F  0.74882564  0.09014725  0.67800689    -0.13400
F1668       F  0.74939905  0.02040787  0.67717702    -0.15700
F1669       F  0.87603503  0.09185894  0.66155131    -0.15700
F1670       F  0.87653925  0.02131519  0.66072680    -0.13400
C1671       C  0.85461031  0.25093128  0.64587611     0.24700
C1672       C  0.85747834  0.22309226  0.66378412    -0.23500
C1673       C  0.88567253  0.22325497  0.68179553     0.19600
C1674       C  0.91150888  0.24994792  0.68119667     0.24600
C1675       C  0.90899583  0.27762220  0.66311838    -0.23400
C1676       C  0.87998930  0.27825509  0.64572437     0.19500
F1677       F  0.87679944  0.30466722  0.62804677    -0.13400
F1678       F  0.82786519  0.25113423  0.62806284    -0.15700
F1679       F  0.93843831  0.24929272  0.69884177    -0.15700
F1680       F  0.88757316  0.19814501  0.70055500    -0.13400
C1681       C  0.58618499  0.30683955  0.80220772     0.24700
C1682       C  0.60580770  0.27731543  0.79310692    -0.23500
C1683       C  0.58607325  0.24747621  0.78482853     0.19600
C1684       C  0.54886830  0.24828624  0.78300533     0.24600
C1685       C  0.52907923  0.27868823  0.79006293    -0.23400
C1686       C  0.54851481  0.30754469  0.80070035     0.19500
F1687       F  0.53144280  0.33512889  0.81215101    -0.13400
F1688       F  0.60262260  0.33338516  0.81533742    -0.15700
F1689       F  0.53210375  0.21757693  0.77656578    -0.15700
F1690       F  0.60260290  0.21595576  0.78039989    -0.13400
C1691       C  0.71424905  0.24259320  0.72832448     0.24700
C1692       C  0.72228006  0.23358282  0.75429187    -0.23500
C1693       C  0.75127252  0.21066164  0.75895169     0.19600
C1694       C  0.77056657  0.19597124  0.73836689     0.24600
C1695       C  0.76069296  0.20287180  0.71252475    -0.23400
C1696       C  0.73276589  0.22688954  0.70775604     0.19500
F1697       F  0.72230656  0.23425708  0.68319414    -0.13400
F1698       F  0.68865849  0.26694598  0.72259011    -0.15700
F1699       F  0.79908276  0.17489351  0.74382713    -0.15700
F1700       F  0.76037290  0.20126471  0.78338705    -0.13400
C1701       C  0.80263314  0.52994123  0.79909538     0.24700
C1702       C  0.83514544  0.51115573  0.79579140    -0.23500
C1703       C  0.86734315  0.53078439  0.79621041     0.19600
C1704       C  0.86747362  0.56675319  0.80143469     0.24600
C1705       C  0.83531029  0.58598367  0.80438160    -0.23400
C1706       C  0.80270002  0.56695998  0.80301059     0.19500
F1707       F  0.77077670  0.58313387  0.80688659    -0.13400
F1708       F  0.77068904  0.51300921  0.79988035    -0.15700
F1709       F  0.89986003  0.58283370  0.80424977    -0.15700
F1710       F  0.89964560  0.51443091  0.79370561    -0.13400
C1711       C  0.92598008  0.41538872  0.74790948     0.24700
C1712       C  0.89101517  0.40460882  0.75406566    -0.23500
C1713       C  0.87343195  0.38089358  0.73748843     0.19600
C1714       C  0.89131564  0.36577169  0.71642866     0.24600
C1715       C  0.92644897  0.37640937  0.70998780    -0.23400
C1716       C  0.94339814  0.40184618  0.72600247     0.19500
F1717       F  0.97638035  0.41470048  0.72014492    -0.13400
F1718       F  0.94282252  0.44009542  0.76266367    -0.15700
F1719       F  0.87400342  0.34035144  0.70272008    -0.15700
F1720       F  0.83799277  0.37436211  0.74039733    -0.13400
C1721       C  0.79416863  0.34749008  0.79048643     0.24700
C1722       C  0.78823861  0.38115923  0.80143696    -0.23500
C1723       C  0.75559325  0.38709670  0.81454011     0.19600
C1724       C  0.72900269  0.36085245  0.81528214     0.24600
C1725       C  0.73426786  0.32805592  0.80285156    -0.23400
C1726       C  0.76722750  0.32191206  0.79035712     0.19500
F1727       F  0.77338205  0.29163010  0.77691223    -0.13400
F1728       F  0.82585075  0.33875375  0.77949751    -0.15700
F1729       F  0.69845072  0.36735808  0.82869863    -0.15700
F1730       F  0.74988992  0.41773313  0.82770399    -0.13400
C1731       C  0.90182930  0.54264918  0.55099862     0.24700
C1732       C  0.89176155  0.52304513  0.57301513    -0.23500
C1733       C  0.88114765  0.54152482  0.59542420     0.19600
C1734       C  0.88412938  0.57860117  0.59653069     0.24600
C1735       C  0.89792343  0.59757668  0.57535690    -0.23400
C1736       C  0.90517020  0.57944475  0.55223794     0.19500
F1737       F  0.91658348  0.59724290  0.53095706    -0.13400
F1738       F  0.91019085  0.52609265  0.52847142    -0.15700
F1739       F  0.87615562  0.59559987  0.61894336    -0.15700
F1740       F  0.87015138  0.52374416  0.61680188    -0.13400
C1741       C  0.08331184  0.44492065  0.59252849     0.24700
C1742       C  0.10260156  0.43401449  0.57055502    -0.23500
C1743       C  0.08391703  0.42782757  0.54732979     0.19600
C1744       C  0.04649409  0.42973913  0.54669274     0.24600
C1745       C  0.02709427  0.43786973  0.56924862    -0.23400
C1746       C  0.04599306  0.44682586  0.59189135     0.19500
F1747       F  0.02841767  0.45550813  0.61398647    -0.13400
F1748       F  0.10031289  0.45198397  0.61516718    -0.15700
F1749       F  0.02926813  0.42224970  0.52421946    -0.15700
F1750       F  0.10164534  0.41855081  0.52542910    -0.13400
C1751       C  0.84544086  0.39461345  0.49731857     0.24700
C1752       C  0.86712690  0.37156514  0.51193500    -0.23500
C1753       C  0.88201030  0.34179446  0.49957718     0.19600
C1754       C  0.88084024  0.33870888  0.47261112     0.24600
C1755       C  0.86540000  0.36575279  0.45752812    -0.23400
C1756       C  0.84474749  0.39188695  0.47018696     0.19500
F1757       F  0.82796678  0.41763324  0.45639831    -0.13400
F1758       F  0.82911643  0.42266877  0.50881927    -0.15700
F1759       F  0.89860279  0.31149623  0.46115398    -0.15700
F1760       F  0.90109938  0.31769086  0.51337769    -0.13400
loop_ 
_geom_bond_atom_site_label_1 
_geom_bond_atom_site_label_2 
_geom_bond_distance 
_geom_bond_site_symmetry_2 
_ccdc_geom_bond_type 
In1           O3   2.247       .  S
In1           O4   2.233       .  S
In1          O12   2.234       .  S
In1           O6   2.293       .  S
In1           O8   2.295       .  S
In1           O9   2.206       .  S
In1          O10   2.212       .  S
In1          O13   2.272       .  S
C2            O8   1.265       .  A
C2           O10   1.255       .  A
C2           C57   1.477       .  S
O3           C11   1.262       .  A
O4           C11   1.259       .  A
C5           O12   1.257       .  A
C5            O6   1.264       .  A
C5         C1752   1.486       .  S
C7            O9   1.260       .  A
C7           O13   1.267       .  A
C7         C1732   1.484       .  S
C11        C1745   1.479   1_655  S
C14          C15   1.533       .  S
C14          C20   1.525       .  S
C14          C18   1.545       .  S
C14        C1702   1.534       .  S
C15          H22   1.087       .  S
C15          C16   1.360       .  D
C16        C1712   1.485       .  S
C16          C17   1.552       .  S
C17          C21   1.539       .  S
C17          C19   1.552       .  S
C17          H23   1.107       .  S
C18          H24   1.079       .  S
C18          C19   1.381       .  D
C19        C1722   1.497       .  S
C20          H25   1.088       .  S
C20          C21   1.355       .  D
C21          C89   1.481       .  S
C26          C27   1.523       .  S
C26          C32   1.536       .  S
C26          C30   1.549       .  S
C26        C1682   1.537       .  S
C27          H34   1.088       .  S
C27          C28   1.359       .  D
C28          C63   1.485       .  S
C28          C29   1.542       .  S
C29          C33   1.553       .  S
C29          C31   1.543       .  S
C29          H35   1.107       .  S
C30          H36   1.083       .  S
C30          C31   1.377       .  D
C31        C1725   1.493       .  S
C32          H37   1.084       .  S
C32          C33   1.366       .  D
C33        C1692   1.500       .  S
C38          C39   1.525       .  S
C38          C44   1.536       .  S
C38          C42   1.539       .  S
C38        C1665   1.530       .  S
C39          H46   1.088       .  S
C39          C40   1.359       .  D
C40          C76   1.476       .  S
C40          C41   1.540       .  S
C41          C45   1.544       .  S
C41          C43   1.543       .  S
C41          H47   1.109       .  S
C42          H48   1.081       .  S
C42          C43   1.374       .  D
C43        C1672   1.477       .  S
C44          H49   1.087       .  S
C44          C45   1.364       .  D
C45        C1695   1.490       .  S
C50          C51   1.537       .  S
C50          C56   1.532       .  S
C50          C54   1.547       .  S
C50        C1652   1.544   1_655  S
C51          H58   1.084       .  S
C51          C52   1.368       .  D
C52        C1715   1.503       .  S
C52          C53   1.551       .  S
C53          C57   1.532       .  S
C53          C55   1.539       .  S
C53          H59   1.108       .  S
C54          H60   1.078       .  S
C54          C55   1.374       .  D
C55        C1675   1.480       .  S
C56          H61   1.088   1_655  S
C56          C57   1.362       .  D
In62         O64   2.265       .  S
In62         O65   2.221       .  S
In62         O73   2.242       .  S
In62         O67   2.274       .  S
In62         O69   2.315       .  S
In62         O70   2.245       .  S
In62         O71   2.213       .  S
In62         O74   2.250       .  S
C63          O69   1.266       .  A
C63          O71   1.254       .  A
O64          C72   1.265       .  A
O65          C72   1.260       .  A
C66          O73   1.258       .  A
C66          O67   1.261       .  A
C66        C1642   1.488       .  S
C68          O70   1.261       .  A
C68          O74   1.261       .  A
C68        C1622   1.482       .  S
C72        C1632   1.479       .  S
In75         O77   2.268       .  S
In75         O78   2.228       .  S
In75         O86   2.265       .  S
In75         O80   2.227       .  S
In75         O82   2.304       .  S
In75         O83   2.252       .  S
In75         O84   2.190       .  S
In75         O87   2.246       .  S
C76          O82   1.263       .  A
C76          O84   1.253       .  A
O77          C85   1.265       .  A
O78          C85   1.259       .  A
C79          O86   1.263       .  A
C79          O80   1.260       .  A
C79        C1612   1.476       .  S
C81          O83   1.258       .  A
C81          O87   1.258       .  A
C81        C1592   1.479       .  S
C85        C1605   1.484       .  S
In88         O90   2.238       .  S
In88         O91   2.258       .  S
In88         O99   2.229       .  S
In88         O93   2.276       .  S
In88         O95   2.316       .  S
In88         O96   2.203       .  S
In88         O97   2.186       .  S
In88        O100   2.268       .  S
C89          O95   1.264       .  A
C89          O97   1.254       .  A
O90          C98   1.259       .  A
O91          C98   1.262       .  A
C92          O99   1.256       .  A
C92          O93   1.262       .  A
C92        C1585   1.486       .  S
C94          O96   1.258       .  A
C94         O100   1.265       .  A
C94        C1572   1.476   1_655  S
C98        C1562   1.483       .  S
C101        C102   1.531       .  S
C101        C107   1.537       .  S
C101        C105   1.542       .  S
C101       C1532   1.538       .  S
C102        H109   1.087       .  S
C102        C103   1.365       .  D
C103        C176   1.483       .  S
C103        C104   1.539       .  S
C104        C108   1.535       .  S
C104        C106   1.545       .  S
C104        H110   1.110       .  S
C105        H111   1.081       .  S
C105        C106   1.377       .  D
C106       C1552   1.481       .  S
C107        H112   1.087       .  S
C107        C108   1.358       .  D
C108       C1542   1.473       .  S
C113        C114   1.535       .  S
C113        C119   1.532       .  S
C113        C117   1.542       .  S
C113       C1512   1.540       .  S
C114        H121   1.086       .  S
C114        C115   1.366       .  D
C115       C1522   1.488       .  S
C115        C116   1.550       .  S
C116        C120   1.543       .  S
C116        C118   1.536       .  S
C116        H122   1.110       .  S
C117        H123   1.081       .  S
C117        C118   1.369       .  D
C118       C1555   1.477       .  S
C119        H124   1.087       .  S
C119        C120   1.365       .  D
C120        C150   1.483       .  S
C125        C126   1.534       .  S
C125        C131   1.530       .  S
C125        C129   1.539       .  S
C125       C1492   1.538       .  S
C126        H133   1.086       .  S
C126        C127   1.365       .  D
C127       C1525   1.493       .  S
C127        C128   1.548       .  S
C128        C132   1.541       .  S
C128        C130   1.548       .  S
C128        H134   1.110       .  S
C129        H135   1.080       .  S
C129        C130   1.370       .  D
C130       C1505   1.479       .  S
C131        H136   1.088       .  S
C131        C132   1.365       .  D
C132        C189   1.484       .  S
C137        C138   1.526       .  S
C137        C143   1.539       .  S
C137        C141   1.545       .  S
C137       C1545   1.535       .  S
C138        H145   1.088       .  S
C138        C139   1.357       .  D
C139       C1502   1.468       .  S
C139        C140   1.534       .  S
C140        C144   1.552       .  S
C140        C142   1.545       .  S
C140        H146   1.110       .  S
C141        H147   1.085       .  S
C141        C142   1.368       .  D
C142        C163   1.487       .  S
C143        H148   1.080       .  S
C143        C144   1.368       .  D
C144       C1482   1.494   1_655  S
In149       O151   2.250       .  S
In149       O152   2.239       .  S
In149       O160   2.281       .  S
In149       O154   2.243       .  S
In149       O156   2.302       .  S
In149       O157   2.217       .  S
In149       O158   2.221       .  S
In149       O161   2.263       .  S
C150        O156   1.267       .  A
C150        O158   1.254       .  A
O151        C159   1.261       .  A
O152        C159   1.260       .  A
C153        O160   1.261       .  A
C153        O154   1.258       .  A
C153       C1645   1.489       .  S
C155        O157   1.260       .  A
C155        O161   1.265       .  A
C155       C1472   1.477       .  S
C159       C1462   1.481       .  S
In162       O164   2.259       .  S
In162       O165   2.226       .  S
In162       O173   2.246       .  S
In162       O167   2.286       .  S
In162       O169   2.283       .  S
In162       O170   2.246       .  S
In162       O171   2.265       .  S
In162       O174   2.251       .  S
C163        O169   1.258       .  A
C163        O171   1.257       .  A
O164        C172   1.266       .  A
O165        C172   1.263       .  A
C166        O173   1.258       .  A
C166        O167   1.261       .  A
C166       C1755   1.491       .  S
C168        O170   1.258       .  A
C168        O174   1.258       .  A
C168       C1452   1.479   1_655  S
C172       C1442   1.483       .  S
In175       O177   2.275       .  S
In175       O178   2.217       .  S
In175       O186   2.231       .  S
In175       O180   2.274       .  S
In175       O182   2.306       .  S
In175       O183   2.239       .  S
In175       O184   2.211       .  S
In175       O187   2.246       .  S
C176        O182   1.265       .  A
C176        O184   1.254       .  A
O177        C185   1.264       .  A
O178        C185   1.258       .  A
C179        O186   1.257       .  A
C179        O180   1.263       .  A
C179       C1582   1.484       .  S
C181        O183   1.261       .  A
C181        O187   1.260       .  A
C181       C1422   1.479       .  S
C185       C1432   1.480   1_655  S
In188       O190   2.239       .  S
In188       O191   2.240       .  S
In188       O199   2.253       .  S
In188       O193   2.261       .  S
In188       O195   2.322       .  S
In188       O196   2.218       .  S
In188       O197   2.199       .  S
In188       O200   2.275       .  S
C189        O195   1.267       .  A
C189        O197   1.252       .  A
O190        C198   1.260       .  A
O191        C198   1.259       .  A
C192        O199   1.258       .  A
C192        O193   1.261       .  A
C192       C1615   1.487       .  S
C194        O196   1.259       .  A
C194        O200   1.266       .  A
C194       C1412   1.477       .  S
C198       C1402   1.477       .  S
C201        C202   1.525       .  S
C201        C207   1.539       .  S
C201        C205   1.542       .  S
C201       C1382   1.530       .  S
C202        H209   1.088       .  S
C202        C203   1.357       .  D
C203       C1392   1.474       .  S
C203        C204   1.539       .  S
C204        C208   1.554       .  S
C204        C206   1.541       .  S
C204        H210   1.110       .  S
C205        H211   1.086       .  S
C205        C206   1.365       .  D
C206        C250   1.479       .  S
C207        H212   1.081       .  S
C207        C208   1.371       .  D
C208       C1372   1.494   1_655  S
C213        C214   1.538       .  S
C213        C219   1.525       .  S
C213        C217   1.535       .  S
C213       C1662   1.530   1_565  S
C214        H221   1.085       .  S
C214        C215   1.366       .  D
C215       C1362   1.503       .  S
C215        C216   1.554       .  S
C216        C220   1.540       .  S
C216        C218   1.549       .  S
C216        H222   1.108       .  S
C217        H223   1.081       .  S
C217        C218   1.371       .  D
C218       C1395   1.477       .  S
C219        H224   1.088       .  S
C219        C220   1.359       .  D
C220        C263   1.482       .  S
C225        C226   1.536       .  S
C225        C231   1.532       .  S
C225        C229   1.543       .  S
C225       C1342   1.542       .  S
C226        H233   1.087       .  S
C226        C227   1.364       .  D
C227       C1365   1.489       .  S
C227        C228   1.553       .  S
C228        C232   1.539       .  S
C228        C230   1.548       .  S
C228        H234   1.108       .  S
C229        H235   1.076       .  S
C229        C230   1.371       .  D
C230       C1352   1.492       .  S
C231        H236   1.087       .  S
C231        C232   1.362       .  D
C232        C276   1.484       .  S
C237        C238   1.532       .  S
C237        C243   1.532       .  S
C237        C241   1.548       .  S
C237       C1705   1.534       .  S
C238        H245   1.087       .  S
C238        C239   1.363       .  D
C239        C289   1.478       .  S
C239        C240   1.532       .  S
C240        C244   1.535       .  S
C240        C242   1.544       .  S
C240        H246   1.109       .  S
C241        H247   1.080       .  S
C241        C242   1.380       .  D
C242       C1355   1.488       .  S
C243        H248   1.087       .  S
C243        C244   1.355       .  D
C244       C1385   1.468       .  S
In249       O251   2.251       .  S
In249       O252   2.228       .  S
In249       O260   2.232       .  S
In249       O254   2.272       .  S
In249       O256   2.278       .  S
In249       O257   2.233       .  S
In249       O258   2.252       .  S
In249       O261   2.224       .  S
C250        O256   1.256       .  A
C250        O258   1.255       .  A
O251        C259   1.265       .  A
O252        C259   1.262       .  A
C253        O260   1.256       .  A
C253        O254   1.261       .  A
C253       C1332   1.484       .  S
C255        O257   1.261       .  A
C255        O261   1.257       .  A
C255       C1322   1.465   1_655  S
C259       C1735   1.476       .  S
In262       O264   2.242       .  S
In262       O265   2.245       .  S
In262       O273   2.242       .  S
In262       O267   2.277       .  S
In262       O269   2.315       .  S
In262       O270   2.214       .  S
In262       O271   2.191       .  S
In262       O274   2.268       .  S
C263        O269   1.265       .  A
C263        O271   1.253       .  A
O264        C272   1.260       .  A
O265        C272   1.259       .  A
C266        O273   1.257       .  A
C266        O267   1.263       .  A
C266       C1312   1.489       .  S
C268        O270   1.260       .  A
C268        O274   1.264       .  A
C268       C1302   1.475       .  S
C272       C1595   1.477   1_565  S
In275       O277   2.242       .  S
In275       O278   2.251       .  S
In275       O286   2.248       .  S
In275       O280   2.264       .  S
In275       O282   2.311       .  S
In275       O283   2.220       .  S
In275       O284   2.212       .  S
In275       O287   2.272       .  S
C276        O282   1.265       .  A
C276        O284   1.253       .  A
O277        C285   1.260       .  A
O278        C285   1.261       .  A
C279        O286   1.259       .  A
C279        O280   1.261       .  A
C279       C1292   1.487       .  S
C281        O283   1.259       .  A
C281        O287   1.264       .  A
C281       C1635   1.480   1_565  S
C285       C1282   1.481       .  S
In288       O290   2.221       .  S
In288       O291   2.268       .  S
In288       O299   2.286       .  S
In288       O293   2.224       .  S
In288       O295   2.205       .  S
In288       O296   2.242       .  S
In288       O297   2.303       .  S
In288       O300   2.247       .  S
C289        O295   1.251       .  A
C289        O297   1.265       .  A
O290        C298   1.260       .  A
O291        C298   1.264       .  A
C292        O299   1.262       .  A
C292        O293   1.256       .  A
C292       C1272   1.483       .  S
C294        O296   1.261       .  A
C294        O300   1.261       .  A
C294       C1565   1.482       .  S
C298       C1265   1.482   1_655  S
C301        C302   1.532       .  S
C301        C307   1.529       .  S
C301        C305   1.549       .  S
C301       C1232   1.534   1_655  S
C302        H309   1.085       .  S
C302        C303   1.360       .  D
C303       C1242   1.480       .  S
C303        C304   1.550       .  S
C304        C308   1.535       .  S
C304        C306   1.546       .  S
C304        H310   1.107       .  S
C305        H311   1.044       .  S
C305        C306   1.380       .  D
C306       C1252   1.497       .  S
C307        H312   1.088       .  S
C307        C308   1.359       .  D
C308        C376   1.480       .  S
C313        C314   1.526       .  S
C313        C319   1.528       .  S
C313        C317   1.550       .  S
C313       C1495   1.535   1_565  S
C314        H321   1.089       .  S
C314        C315   1.355       .  D
C315        C389   1.482       .  S
C315        C316   1.538       .  S
C316        C320   1.555       .  S
C316        C318   1.549       .  S
C316        H322   1.104       .  S
C317        H323   1.081       .  S
C317        C318   1.383       .  D
C318       C1255   1.503       .  S
C319        H324   1.088       .  S
C319        C320   1.359       .  D
C320       C1222   1.484       .  S
C325        C326   1.529       .  S
C325        C331   1.528       .  S
C325        C329   1.545       .  S
C325       C1535   1.538       .  S
C326        H333   1.086       .  S
C326        C327   1.362       .  D
C327       C1245   1.498       .  S
C327        C328   1.550       .  S
C328        C332   1.528       .  S
C328        C330   1.559       .  S
C328        H334   1.096       .  S
C329        H335   1.076       .  S
C329        C330   1.390       .  D
C330       C1212   1.516       .  S
C331        H336   1.088       .  S
C331        C332   1.353       .  D
C332        C350   1.475       .  S
C337        C338   1.531       .  S
C337        C343   1.528       .  S
C337        C341   1.540       .  S
C337       C1202   1.534       .  S
C338        H345   1.087       .  S
C338        C339   1.360       .  D
C339        C363   1.478       .  S
C339        C340   1.531       .  S
C340        C344   1.551       .  S
C340        C342   1.556       .  S
C340        H346   1.099       .  S
C341        H347   1.077       .  S
C341        C342   1.381       .  D
C342       C1215   1.508       .  S
C343        H348   1.087       .  S
C343        C344   1.359       .  D
C344       C1225   1.487       .  S
In349       O351   2.245       .  S
In349       O352   2.242       .  S
In349       O360   2.228       .  S
In349       O354   2.266       .  S
In349       O356   2.296       .  S
In349       O357   2.212       .  S
In349       O358   2.196       .  S
In349       O361   2.255       .  S
C350        O356   1.264       .  A
C350        O358   1.253       .  A
O351        C359   1.262       .  A
O352        C359   1.261       .  A
C353        O360   1.258       .  A
C353        O354   1.261       .  A
C353       C1275   1.482       .  S
C355        O357   1.259       .  A
C355        O361   1.264       .  A
C355       C1192   1.476   1_655  S
C359       C1425   1.481       .  S
In362       O364   2.266       .  S
In362       O365   2.216       .  S
In362       O373   2.257       .  S
In362       O367   2.267       .  S
In362       O369   2.300       .  S
In362       O370   2.236       .  S
In362       O371   2.213       .  S
In362       O374   2.244       .  S
C363        O369   1.267       .  A
C363        O371   1.252       .  A
O364        C372   1.266       .  A
O365        C372   1.260       .  A
C366        O373   1.259       .  A
C366        O367   1.260       .  A
C366       C1295   1.490       .  S
C368        O370   1.259       .  A
C368        O374   1.261       .  A
C368       C1185   1.479       .  S
C372       C1475   1.479   1_565  S
In375       O377   2.265       .  S
In375       O378   2.235       .  S
In375       O386   2.247       .  S
In375       O380   2.273       .  S
In375       O382   2.310       .  S
In375       O383   2.218       .  S
In375       O384   2.221       .  S
In375       O387   2.272       .  S
C376        O382   1.264       .  A
C376        O384   1.251       .  A
O377        C385   1.262       .  A
O378        C385   1.259       .  A
C379        O386   1.260       .  A
C379        O380   1.260       .  A
C379       C1335   1.488       .  S
C381        O383   1.260       .  A
C381        O387   1.267       .  A
C381       C1445   1.483       .  S
C385       C1172   1.485   1_655  S
In388       O390   2.254       .  S
In388       O391   2.210       .  S
In388       O399   2.251       .  S
In388       O393   2.265       .  S
In388       O395   2.314       .  S
In388       O396   2.250       .  S
In388       O397   2.210       .  S
In388       O400   2.238       .  S
C389        O395   1.265       .  A
C389        O397   1.253       .  A
O390        C398   1.265       .  A
O391        C398   1.259       .  A
C392        O399   1.260       .  A
C392        O393   1.260       .  A
C392       C1315   1.490       .  S
C394        O396   1.260       .  A
C394        O400   1.261       .  A
C394       C1405   1.480   1_565  S
C398       C1162   1.468       .  S
In401       O403   2.221       .  S
In401       O404   2.267       .  S
In401       O412   2.247       .  S
In401       O406   2.270       .  S
In401       O408   2.261       .  S
In401       O409   2.237       .  S
In401       O410   2.244       .  S
In401       O413   2.250       .  S
C402        O408   1.258       .  A
C402        O410   1.260       .  A
C402        C431   1.476       .  S
O403        C411   1.260       .  A
O404        C411   1.263       .  A
C405        O412   1.258       .  A
C405        O406   1.260       .  A
C405       C1155   1.488       .  S
C407        O409   1.258       .  A
C407        O413   1.259       .  A
C407       C1742   1.479       .  S
C411       C1142   1.479       .  S
C414        C415   1.534       .  S
C414        C420   1.532       .  S
C414        C418   1.539       .  S
C414       C1112   1.534       .  S
C415        H422   1.086       .  S
C415        C416   1.365       .  D
C416       C1125   1.500       .  S
C416        C417   1.554       .  S
C417        C421   1.543       .  S
C417        C419   1.546       .  S
C417        H423   1.110       .  S
C418        H424   1.079       .  S
C418        C419   1.368       .  D
C419       C1135   1.478       .  S
C420        H425   1.086       .  S
C420        C421   1.362       .  D
C421        C489   1.486       .  S
C426        C427   1.519       .  S
C426        C432   1.537       .  S
C426        C430   1.544       .  S
C426       C1102   1.527       .  S
C427        H434   1.088       .  S
C427        C428   1.360       .  D
C428       C1132   1.471       .  S
C428        C429   1.541       .  S
C429        C433   1.547       .  S
C429        C431   1.541       .  S
C429        H435   1.111       .  S
C430        H436   1.086       .  S
C430        C431   1.365       .  D
C432        H437   1.085       .  S
C432        C433   1.367       .  D
C433       C1655   1.484       .  S
C438        C439   1.542       .  S
C438        C444   1.522       .  S
C438        C442   1.538       .  S
C438       C1685   1.538       .  S
C439        H446   1.084       .  S
C439        C440   1.372       .  D
C440       C1122   1.503       .  S
C440        C441   1.552       .  S
C441        C445   1.545       .  S
C441        C443   1.548       .  S
C441        H447   1.109       .  S
C442        H448   1.083       .  S
C442        C443   1.371       .  D
C443       C1092   1.485       .  S
C444        H449   1.089       .  S
C444        C445   1.359       .  D
C445        C463   1.487       .  S
C450        C451   1.526       .  S
C450        C456   1.532       .  S
C450        C454   1.549       .  S
C450       C1082   1.530       .  S
C451        H458   1.088       .  S
C451        C452   1.360       .  D
C452        C476   1.465       .  S
C452        C453   1.531       .  S
C453        C457   1.535       .  S
C453        C455   1.538       .  S
C453        H459   1.110       .  S
C454        H460   1.078       .  S
C454        C455   1.374       .  D
C455       C1095   1.479       .  S
C456        H461   1.087       .  S
C456        C457   1.360       .  D
C457       C1105   1.470       .  S
In462       O464   2.259       .  S
In462       O465   2.233       .  S
In462       O473   2.226       .  S
In462       O467   2.278       .  S
In462       O469   2.329       .  S
In462       O470   2.219       .  S
In462       O471   2.197       .  S
In462       O474   2.274       .  S
C463        O469   1.267       .  A
C463        O471   1.253       .  A
O464        C472   1.262       .  A
O465        C472   1.260       .  A
C466        O473   1.258       .  A
C466        O467   1.267       .  A
C466       C1072   1.485       .  S
C468        O470   1.258       .  A
C468        O474   1.265       .  A
C468       C1062   1.477       .  S
C472       C1625   1.483       .  S
In475       O477   2.250       .  S
In475       O478   2.216       .  S
In475       O486   2.237       .  S
In475       O480   2.263       .  S
In475       O482   2.273       .  S
In475       O483   2.239       .  S
In475       O484   2.195       .  S
In475       O487   2.245       .  S
C476        O482   1.262       .  A
C476        O484   1.254       .  A
O477        C485   1.263       .  A
O478        C485   1.262       .  A
C479        O486   1.257       .  A
C479        O480   1.260       .  A
C479       C1052   1.478       .  S
C481        O483   1.260       .  A
C481        O487   1.262       .  A
C481       C1042   1.480       .  S
C485       C1575   1.474       .  S
In488       O490   2.243       .  S
In488       O491   2.262       .  S
In488       O499   2.278       .  S
In488       O493   2.229       .  S
In488       O495   2.315       .  S
In488       O496   2.237       .  S
In488       O497   2.203       .  S
In488       O500   2.262       .  S
C489        O495   1.266       .  A
C489        O497   1.254       .  A
O490        C498   1.258       .  A
O491        C498   1.260       .  A
C492        O499   1.265       .  A
C492        O493   1.259       .  A
C492       C1035   1.484       .  S
C494        O496   1.259       .  A
C494        O500   1.262       .  A
C494       C1602   1.485       .  S
C498       C1025   1.482       .  S
C501        C502   1.547       .  S
C501        C507   1.536       .  S
C501        C505   1.543       .  S
C501       C1485   1.549       .  S
C502        H509   1.085       .  S
C502        C503   1.374       .  D
C503       C1002   1.497       .  S
C503        C504   1.548       .  S
C504        C508   1.530       .  S
C504        C506   1.535       .  S
C504        H510   1.108       .  S
C505        H511   1.086       .  S
C505        C506   1.373       .  D
C506       C1012   1.489       .  S
C507        H512   1.082       .  S
C507        C508   1.360       .  D
C508        C576   1.471       .  S
C513        C514   1.533       .  S
C513        C519   1.538       .  S
C513        C517   1.533       .  S
C513        C982   1.539       .  S
C514        H521   1.087       .  S
C514        C515   1.365       .  D
C515        C589   1.484       .  S
C515        C516   1.546       .  S
C516        C520   1.548       .  S
C516        C518   1.551       .  S
C516        H522   1.110       .  S
C517        H523   1.085       .  S
C517        C518   1.372       .  D
C518       C1015   1.496       .  S
C519        H524   1.080       .  S
C519        C520   1.364       .  D
C520        C992   1.487       .  S
C525        C526   1.537       .  S
C525        C531   1.527       .  S
C525        C529   1.545       .  S
C525        C962   1.540       .  S
C526        H533   1.087       .  S
C526        C527   1.368       .  D
C527       C1005   1.490       .  S
C527        C528   1.546       .  S
C528        C532   1.540       .  S
C528        C530   1.542       .  S
C528        H534   1.110       .  S
C529        H535   1.079       .  S
C529        C530   1.372       .  D
C530        C972   1.485       .  S
C531        H536   1.088       .  S
C531        C532   1.361       .  D
C532        C550   1.477       .  S
C537        C538   1.522       .  S
C537        C543   1.536       .  S
C537        C541   1.545       .  S
C537       C1515   1.537       .  S
C538        H545   1.088       .  S
C538        C539   1.359       .  D
C539        C563   1.477       .  S
C539        C540   1.542       .  S
C540        C544   1.547       .  S
C540        C542   1.542       .  S
C540        H546   1.110       .  S
C541        H547   1.082       .  S
C541        C542   1.376       .  D
C542        C975   1.484       .  S
C543        H548   1.086       .  S
C543        C544   1.365       .  D
C544        C995   1.487       .  S
In549       O551   2.244       .  S
In549       O552   2.253       .  S
In549       O560   2.247       .  S
In549       O554   2.256       .  S
In549       O556   2.302       .  S
In549       O557   2.212       .  S
In549       O558   2.205       .  S
In549       O561   2.259       .  S
C550        O556   1.265       .  A
C550        O558   1.254       .  A
O551        C559   1.260       .  A
O552        C559   1.261       .  A
C553        O560   1.259       .  A
C553        O554   1.258       .  A
C553       C1055   1.483       .  S
C555        O557   1.261       .  A
C555        O561   1.266       .  A
C555       C1435   1.473       .  S
C559        C952   1.483       .  S
In562       O564   2.267       .  S
In562       O565   2.218       .  S
In562       O573   2.275       .  S
In562       O567   2.239       .  S
In562       O569   2.308       .  S
In562       O570   2.247       .  S
In562       O571   2.187       .  S
In562       O574   2.237       .  S
C563        O569   1.267       .  A
C563        O571   1.255       .  A
O564        C572   1.266       .  A
O565        C572   1.260       .  A
C566        O573   1.263       .  A
C566        O567   1.259       .  A
C566       C1075   1.488       .  S
C568        O570   1.263       .  A
C568        O574   1.260       .  A
C568       C1465   1.481       .  S
C572        C945   1.474       .  S
In575       O577   2.247       .  S
In575       O578   2.242       .  S
In575       O586   2.231       .  S
In575       O580   2.278       .  S
In575       O582   2.290       .  S
In575       O583   2.196       .  S
In575       O584   2.202       .  S
In575       O587   2.287       .  S
C576        O582   1.264       .  A
C576        O584   1.253       .  A
O577        C585   1.260       .  A
O578        C585   1.259       .  A
C579        O586   1.257       .  A
C579        O580   1.264       .  A
C579       C1152   1.487       .  S
C581        O583   1.260       .  A
C581        O587   1.268       .  A
C581        C932   1.485       .  S
C585       C1455   1.476       .  S
In588       O590   2.276       .  S
In588       O591   2.210       .  S
In588       O599   2.267       .  S
In588       O593   2.256       .  S
In588       O595   2.315       .  S
In588       O596   2.250       .  S
In588       O597   2.202       .  S
In588       O600   2.248       .  S
C589        O595   1.267       .  A
C589        O597   1.254       .  A
O590        C598   1.266       .  A
O591        C598   1.260       .  A
C592        O599   1.261       .  A
C592        O593   1.258       .  A
C592       C1032   1.491       .  S
C594        O596   1.260       .  A
C594        O600   1.260       .  A
C594        C925   1.482       .  S
C598       C1415   1.474       .  S
In601       O603   2.258       .  S
In601       O604   2.217       .  S
In601       O612   2.240       .  S
In601       O606   2.273       .  S
In601       O608   2.318       .  S
In601       O609   2.250       .  S
In601       O610   2.199       .  S
In601       O613   2.256       .  S
C602        O608   1.265       .  A
C602        O610   1.253       .  A
C602        C652   1.483       .  S
O603        C611   1.264       .  A
O604        C611   1.261       .  A
C605        O612   1.258       .  A
C605        O606   1.260       .  A
C605        C912   1.486       .  S
C607        O609   1.258       .  A
C607        O613   1.260       .  A
C607       C1022   1.483   1_565  S
C611       C1305   1.475       .  S
C614        C615   1.532       .  S
C614        C620   1.533       .  S
C614        C618   1.548       .  S
C614       C1345   1.541       .  S
C615        H622   1.087       .  S
C615        C616   1.364       .  D
C616        C689   1.485       .  S
C616        C617   1.539       .  S
C617        C621   1.542       .  S
C617        C619   1.538       .  S
C617        H623   1.111       .  S
C618        H624   1.079       .  S
C618        C619   1.374       .  D
C619        C902   1.478       .  S
C620        H625   1.086       .  S
C620        C621   1.363       .  D
C621        C892   1.481       .  S
C626        C627   1.532       .  S
C626        C632   1.530       .  S
C626        C630   1.543       .  S
C626       C1085   1.533       .  S
C627        H634   1.087       .  S
C627        C628   1.362       .  D
C628        C885   1.481       .  S
C628        C629   1.543       .  S
C629        C633   1.540       .  S
C629        C631   1.539       .  S
C629        H635   1.111       .  S
C630        H636   1.078       .  S
C630        C631   1.370       .  D
C631        C905   1.475       .  S
C632        H637   1.088       .  S
C632        C633   1.362       .  D
C633        C663   1.476       .  S
C638        C639   1.539       .  S
C638        C644   1.540       .  S
C638        C642   1.533       .  S
C638       C1375   1.543       .  S
C639        H646   1.084       .  S
C639        C640   1.371       .  D
C640        C882   1.496       .  S
C640        C641   1.552       .  S
C641        C645   1.534       .  S
C641        C643   1.536       .  S
C641        H647   1.110       .  S
C642        H648   1.086       .  S
C642        C643   1.367       .  D
C643        C872   1.477       .  S
C644        H649   1.081       .  S
C644        C645   1.366       .  D
C645        C676   1.474       .  S
C650        C651   1.529       .  S
C650        C656   1.530       .  S
C650        C654   1.541       .  S
C650       C1115   1.533   1_565  S
C651        H658   1.087       .  S
C651        C652   1.363       .  D
C652        C653   1.543       .  S
C653        C657   1.546       .  S
C653        C655   1.547       .  S
C653        H659   1.110       .  S
C654        H660   1.079       .  S
C654        C655   1.373       .  D
C655        C875   1.484       .  S
C656        H661   1.087       .  S
C656        C657   1.361       .  D
C657        C895   1.482       .  S
In662       O664   2.250       .  S
In662       O665   2.238       .  S
In662       O673   2.237       .  S
In662       O667   2.280       .  S
In662       O669   2.300       .  S
In662       O670   2.215       .  S
In662       O671   2.204       .  S
In662       O674   2.265       .  S
C663        O669   1.263       .  A
C663        O671   1.255       .  A
O664        C672   1.260       .  A
O665        C672   1.260       .  A
C666        O673   1.255       .  A
C666        O667   1.261       .  A
C666        C862   1.485       .  S
C668        O670   1.261       .  A
C668        O674   1.265       .  A
C668       C1262   1.476       .  S
C672       C1045   1.479       .  S
In675       O677   2.233       .  S
In675       O678   2.232       .  S
In675       O686   2.240       .  S
In675       O680   2.278       .  S
In675       O682   2.289       .  S
In675       O683   2.208       .  S
In675       O684   2.215       .  S
In675       O687   2.265       .  S
C676        O682   1.266       .  A
C676        O684   1.252       .  A
O677        C685   1.260       .  A
O678        C685   1.259       .  A
C679        O686   1.257       .  A
C679        O680   1.264       .  A
C679        C852   1.487       .  S
C681        O683   1.261       .  A
C681        O687   1.267       .  A
C681       C1145   1.479       .  S
C685       C1325   1.471       .  S
In688       O690   2.274       .  S
In688       O691   2.226       .  S
In688       O699   2.286       .  S
In688       O693   2.226       .  S
In688       O695   2.315       .  S
In688       O696   2.243       .  S
In688       O697   2.206       .  S
In688       O700   2.239       .  S
C689        O695   1.267       .  A
C689        O697   1.253       .  A
O690        C698   1.264       .  A
O691        C698   1.259       .  A
C692        O699   1.265       .  A
C692        O693   1.258       .  A
C692        C842   1.486       .  S
C694        O696   1.261       .  A
C694        O700   1.260       .  A
C694       C1285   1.478       .  S
C698       C1065   1.482   1_565  S
C701        C702   1.537       .  S
C701        C707   1.520       .  S
C701        C705   1.541       .  S
C701       C1205   1.533       .  S
C702        H709   1.085       .  S
C702        C703   1.365       .  D
C703        C822   1.498       .  S
C703        C704   1.554       .  S
C704        C708   1.548       .  S
C704        C706   1.546       .  S
C704        H710   1.110       .  S
C705        H711   1.083       .  S
C705        C706   1.373       .  D
C706        C832   1.479       .  S
C707        H712   1.088       .  S
C707        C708   1.359       .  D
C708        C776   1.488       .  S
C713        C714   1.531       .  S
C713        C719   1.535       .  S
C713        C717   1.552       .  S
C713        C965   1.540       .  S
C714        H721   1.088       .  S
C714        C715   1.360       .  D
C715        C750   1.476       .  S
C715        C716   1.536       .  S
C716        C720   1.546       .  S
C716        C718   1.533       .  S
C716        H722   1.110       .  S
C717        H723   1.080       .  S
C717        C718   1.371       .  D
C718        C835   1.479       .  S
C719        H724   1.086       .  S
C719        C720   1.366       .  D
C720        C812   1.490       .  S
C725        C726   1.531       .  S
C725        C731   1.537       .  S
C725        C729   1.542       .  S
C725       C1235   1.535       .  S
C726        H733   1.087       .  S
C726        C727   1.362       .  D
C727        C789   1.481       .  S
C727        C728   1.537       .  S
C728        C732   1.545       .  S
C728        C730   1.539       .  S
C728        H734   1.110       .  S
C729        H735   1.080       .  S
C729        C730   1.369       .  D
C730        C802   1.477       .  S
C731        H736   1.086       .  S
C731        C732   1.366       .  D
C732        C815   1.485       .  S
C737        C738   1.541       .  S
C737        C743   1.533       .  S
C737        C741   1.530       .  S
C737        C985   1.535   1_565  S
C738        H745   1.082       .  S
C738        C739   1.369       .  D
C739        C825   1.494       .  S
C739        C740   1.549       .  S
C740        C744   1.543       .  S
C740        C742   1.538       .  S
C740        H746   1.109       .  S
C741        H747   1.086       .  S
C741        C742   1.366       .  D
C742        C805   1.476       .  S
C743        H748   1.087       .  S
C743        C744   1.365       .  D
C744        C763   1.482       .  S
In749       O751   2.266       .  S
In749       O752   2.223       .  S
In749       O760   2.246       .  S
In749       O754   2.275       .  S
In749       O756   2.298       .  S
In749       O757   2.242       .  S
In749       O758   2.215       .  S
In749       O761   2.245       .  S
C750        O756   1.265       .  A
C750        O758   1.254       .  A
O751        C759   1.264       .  A
O752        C759   1.260       .  A
C753        O760   1.257       .  A
C753        O754   1.261       .  A
C753        C865   1.485       .  S
C755        O757   1.262       .  A
C755        O761   1.262       .  A
C755        C955   1.481       .  S
C759       C1195   1.476       .  S
In762       O764   2.240       .  S
In762       O765   2.243       .  S
In762       O773   2.268       .  S
In762       O767   2.234       .  S
In762       O769   2.314       .  S
In762       O770   2.215       .  S
In762       O771   2.207       .  S
In762       O774   2.259       .  S
C763        O769   1.266       .  A
C763        O771   1.252       .  A
O764        C772   1.261       .  A
O765        C772   1.260       .  A
C766        O773   1.262       .  A
C766        O767   1.258       .  A
C766        C915   1.484       .  S
C768        O770   1.259       .  A
C768        O774   1.265       .  A
C768       C1165   1.474       .  S
C772        C922   1.479   1_565  S
In775       O777   2.243       .  S
In775       O778   2.249       .  S
In775       O786   2.286       .  S
In775       O780   2.240       .  S
In775       O782   2.335       .  S
In775       O783   2.220       .  S
In775       O784   2.183       .  S
In775       O787   2.269       .  S
C776        O782   1.267       .  A
C776        O784   1.253       .  A
O777        C785   1.261       .  A
O778        C785   1.261       .  A
C779        O786   1.264       .  A
C779        O780   1.259       .  A
C779        C845   1.490       .  S
C781        O783   1.258       .  A
C781        O787   1.266       .  A
C781        C942   1.476       .  S
C785       C1182   1.482       .  S
In788       O790   2.292       .  S
In788       O791   2.219       .  S
In788       O799   2.259       .  S
In788       O793   2.267       .  S
In788       O795   2.307       .  S
In788       O796   2.253       .  S
In788       O797   2.209       .  S
In788       O800   2.255       .  S
C789        O795   1.266       .  A
C789        O797   1.254       .  A
O790        C798   1.267       .  A
O791        C798   1.261       .  A
C792        O799   1.258       .  A
C792        O793   1.260       .  A
C792        C855   1.490       .  S
C794        O796   1.260       .  A
C794        O800   1.259       .  A
C794       C1175   1.485       .  S
C798        C935   1.492       .  S
C801        C802   1.404       .  A
C801        C806   1.397       .  A
C801        F808   1.357       .  S
C802        C803   1.406       .  A
C803        C804   1.395       .  A
C803        F810   1.358       .  S
C804        C805   1.406       .  A
C804        F809   1.359       .  S
C805        C806   1.404       .  A
C806        F807   1.357       .  S
C811        C812   1.405       .  A
C811        C816   1.399       .  A
C811        F818   1.357       .  S
C812        C813   1.413       .  A
C813        C814   1.397       .  A
C813        F820   1.357       .  S
C814        C815   1.403       .  A
C814        F819   1.358       .  S
C815        C816   1.410       .  A
C816        F817   1.358       .  S
C821        C822   1.416       .  A
C821        C826   1.402       .  A
C821        F828   1.358       .  S
C822        C823   1.405       .  A
C823        C824   1.402       .  A
C823        F830   1.357       .  S
C824        C825   1.413       .  A
C824        F829   1.358       .  S
C825        C826   1.403       .  A
C826        F827   1.358       .  S
C831        C832   1.405       .  A
C831        C836   1.396       .  A
C831        F838   1.358       .  S
C832        C833   1.406       .  A
C833        C834   1.400       .  A
C833        F840   1.358       .  S
C834        C835   1.405       .  A
C834        F839   1.357       .  S
C835        C836   1.406       .  A
C836        F837   1.358       .  S
C841        C842   1.409       .  A
C841        C846   1.408       .  A
C841        F848   1.358       .  S
C842        C843   1.406       .  A
C843        C844   1.399       .  A
C843        F850   1.358       .  S
C844        C845   1.407   1_556  A
C844        F849   1.358   1_556  S
C845        C846   1.411   1_554  A
C846        F847   1.358   1_556  S
C851        C852   1.407       .  A
C851        C856   1.402       .  A
C851        F858   1.357       .  S
C852        C853   1.409       .  A
C853        C854   1.403       .  A
C853        F860   1.358       .  S
C854        C855   1.410       .  A
C854        F859   1.358       .  S
C855        C856   1.410       .  A
C856        F857   1.357       .  S
C861        C862   1.408       .  A
C861        C866   1.401   1_556  A
C861        F868   1.358       .  S
C862        C863   1.409       .  A
C863        C864   1.404   1_556  A
C863        F870   1.358       .  S
C864        C865   1.409       .  A
C864        F869   1.358       .  S
C865        C866   1.407       .  A
C866        F867   1.358       .  S
C871        C872   1.405       .  A
C871        C876   1.401       .  A
C871        F878   1.357       .  S
C872        C873   1.403       .  A
C873        C874   1.394       .  A
C873        F880   1.358       .  S
C874        C875   1.409       .  A
C874        F879   1.358       .  S
C875        C876   1.407       .  A
C876        F877   1.358       .  S
C881        C882   1.412       .  A
C881        C886   1.397       .  A
C881        F888   1.357       .  S
C882        C883   1.411       .  A
C883        C884   1.405       .  A
C883        F890   1.357       .  S
C884        C885   1.405       .  A
C884        F889   1.358       .  S
C885        C886   1.402       .  A
C886        F887   1.359       .  S
C891        C892   1.404       .  A
C891        C896   1.395       .  A
C891        F898   1.359       .  S
C892        C893   1.407       .  A
C893        C894   1.404       .  A
C893        F900   1.357       .  S
C894        C895   1.405       .  A
C894        F899   1.357       .  S
C895        C896   1.407       .  A
C896        F897   1.358       .  S
C901        C902   1.405       .  A
C901        C906   1.395       .  A
C901        F908   1.358       .  S
C902        C903   1.406       .  A
C903        C904   1.398       .  A
C903        F910   1.358       .  S
C904        C905   1.404       .  A
C904        F909   1.358       .  S
C905        C906   1.405       .  A
C906        F907   1.358       .  S
C911        C912   1.410       .  A
C911        C916   1.404       .  A
C911        F918   1.358       .  S
C912        C913   1.407       .  A
C913        C914   1.399       .  A
C913        F920   1.358       .  S
C914        C915   1.407       .  A
C914        F919   1.358       .  S
C915        C916   1.409       .  A
C916        F917   1.358       .  S
C921        C922   1.407       .  A
C921        C926   1.397       .  A
C921        F928   1.358       .  S
C922        C923   1.408       .  A
C923        C924   1.398       .  A
C923        F930   1.358       .  S
C924        C925   1.409       .  A
C924        F929   1.358       .  S
C925        C926   1.409       .  A
C926        F927   1.358       .  S
C931        C932   1.406       .  A
C931        C936   1.392       .  A
C931        F938   1.359       .  S
C932        C933   1.410       .  A
C933        C934   1.411       .  A
C933        F940   1.358       .  S
C934        C935   1.412       .  A
C934        F939   1.357       .  S
C935        C936   1.408       .  A
C936        F937   1.358       .  S
C941        C942   1.407   1_545  A
C941        C946   1.399       .  A
C941        F948   1.359   1_545  S
C942        C943   1.406   1_565  A
C943        C944   1.402       .  A
C943        F950   1.357       .  S
C944        C945   1.404       .  A
C944        F949   1.357       .  S
C945        C946   1.405       .  A
C946        F947   1.358       .  S
C951        C952   1.409       .  A
C951        C956   1.398       .  A
C951        F958   1.358       .  S
C952        C953   1.409       .  A
C953        C954   1.399       .  A
C953        F960   1.358       .  S
C954        C955   1.407       .  A
C954        F959   1.358       .  S
C955        C956   1.407       .  A
C956        F957   1.358       .  S
C961        C962   1.411       .  A
C961        C966   1.391       .  A
C961        F968   1.359       .  S
C962        C963   1.417       .  A
C963        C964   1.406       .  A
C963        F970   1.353       .  S
C964        C965   1.415       .  A
C964        F969   1.352       .  S
C965        C966   1.412       .  A
C966        F967   1.359       .  S
C971        C972   1.406       .  A
C971        C976   1.402       .  A
C971        F978   1.357       .  S
C972        C973   1.408       .  A
C973        C974   1.397       .  A
C973        F980   1.358       .  S
C974        C975   1.406       .  A
C974        F979   1.358       .  S
C975        C976   1.406       .  A
C976        F977   1.357       .  S
C981        C982   1.412       .  A
C981        C986   1.400       .  A
C981        F988   1.358       .  S
C982        C983   1.414       .  A
C983        C984   1.400       .  A
C983        F990   1.356       .  S
C984        C985   1.411       .  A
C984        F989   1.356       .  S
C985        C986   1.412       .  A
C986        F987   1.359       .  S
C991        C992   1.408       .  A
C991        C996   1.396       .  A
C991        F998   1.358       .  S
C992        C993   1.406       .  A
C993        C994   1.406       .  A
C993       F1000   1.357       .  S
C994        C995   1.408       .  A
C994        F999   1.357       .  S
C995        C996   1.406       .  A
C996        F997   1.359       .  S
C1001      C1002   1.414       .  A
C1001      C1006   1.406       .  A
C1001      F1008   1.358       .  S
C1002      C1003   1.408       .  A
C1003      C1004   1.396       .  A
C1003      F1010   1.357       .  S
C1004      C1005   1.406       .  A
C1004      F1009   1.358       .  S
C1005      C1006   1.405       .  A
C1006      F1007   1.358       .  S
C1011      C1012   1.408       .  A
C1011      C1016   1.403       .  A
C1011      F1018   1.358       .  S
C1012      C1013   1.404       .  A
C1013      C1014   1.401       .  A
C1013      F1020   1.358       .  S
C1014      C1015   1.412       .  A
C1014      F1019   1.357       .  S
C1015      C1016   1.408       .  A
C1016      F1017   1.357       .  S
C1021      C1022   1.407       .  A
C1021      C1026   1.398       .  A
C1021      F1028   1.358       .  S
C1022      C1023   1.409       .  A
C1023      C1024   1.399       .  A
C1023      F1030   1.358       .  S
C1024      C1025   1.408       .  A
C1024      F1029   1.358       .  S
C1025      C1026   1.409       .  A
C1026      F1027   1.358       .  S
C1031      C1032   1.411       .  A
C1031      C1036   1.400       .  A
C1031      F1038   1.358       .  S
C1032      C1033   1.410       .  A
C1033      C1034   1.405       .  A
C1033      F1040   1.357       .  S
C1034      C1035   1.407       .  A
C1034      F1039   1.358       .  S
C1035      C1036   1.406       .  A
C1036      F1037   1.358       .  S
C1041      C1042   1.408       .  A
C1041      C1046   1.399       .  A
C1041      F1048   1.358       .  S
C1042      C1043   1.408       .  A
C1043      C1044   1.397       .  A
C1043      F1050   1.358       .  S
C1044      C1045   1.407       .  A
C1044      F1049   1.358       .  S
C1045      C1046   1.408       .  A
C1046      F1047   1.358       .  S
C1051      C1052   1.407       .  A
C1051      C1056   1.400       .  A
C1051      F1058   1.358       .  S
C1052      C1053   1.406       .  A
C1053      C1054   1.399   1_556  A
C1053      F1060   1.358       .  S
C1054      C1055   1.407       .  A
C1054      F1059   1.358       .  S
C1055      C1056   1.410   1_554  A
C1056      F1057   1.358   1_556  S
C1061      C1062   1.404       .  A
C1061      C1066   1.397       .  A
C1061      F1068   1.358       .  S
C1062      C1063   1.407       .  A
C1063      C1064   1.405       .  A
C1063      F1070   1.358       .  S
C1064      C1065   1.409       .  A
C1064      F1069   1.358       .  S
C1065      C1066   1.406       .  A
C1066      F1067   1.358       .  S
C1071      C1072   1.408       .  A
C1071      C1076   1.400       .  A
C1071      F1078   1.358       .  S
C1072      C1073   1.407       .  A
C1073      C1074   1.406   1_556  A
C1073      F1080   1.358       .  S
C1074      C1075   1.410       .  A
C1074      F1079   1.357       .  S
C1075      C1076   1.407   1_554  A
C1076      F1077   1.358   1_556  S
C1081      C1082   1.412       .  A
C1081      C1086   1.388       .  A
C1081      F1088   1.360       .  S
C1082      C1083   1.411       .  A
C1083      C1084   1.401       .  A
C1083      F1090   1.352       .  S
C1084      C1085   1.415       .  A
C1084      F1089   1.351       .  S
C1085      C1086   1.411       .  A
C1086      F1087   1.360       .  S
C1091      C1092   1.409       .  A
C1091      C1096   1.398       .  A
C1091      F1098   1.358       .  S
C1092      C1093   1.406       .  A
C1093      C1094   1.395       .  A
C1093      F1100   1.357       .  S
C1094      C1095   1.406       .  A
C1094      F1099   1.357       .  S
C1095      C1096   1.405       .  A
C1096      F1097   1.358       .  S
C1101      C1102   1.418       .  A
C1101      C1106   1.401       .  A
C1101      F1108   1.357       .  S
C1102      C1103   1.413       .  A
C1103      C1104   1.390       .  A
C1103      F1110   1.357       .  S
C1104      C1105   1.401       .  A
C1104      F1109   1.359       .  S
C1105      C1106   1.398       .  A
C1106      F1107   1.358       .  S
C1111      C1112   1.409       .  A
C1111      C1116   1.385       .  A
C1111      F1118   1.359       .  S
C1112      C1113   1.415       .  A
C1113      C1114   1.406       .  A
C1113      F1120   1.353       .  S
C1114      C1115   1.414       .  A
C1114      F1119   1.353       .  S
C1115      C1116   1.411       .  A
C1116      F1117   1.359       .  S
C1121      C1122   1.408       .  A
C1121      C1126   1.406       .  A
C1121      F1128   1.358       .  S
C1122      C1123   1.414       .  A
C1123      C1124   1.401       .  A
C1123      F1130   1.357       .  S
C1124      C1125   1.403       .  A
C1124      F1129   1.357       .  S
C1125      C1126   1.416       .  A
C1126      F1127   1.358       .  S
C1131      C1132   1.405       .  A
C1131      C1136   1.401       .  A
C1131      F1138   1.358       .  S
C1132      C1133   1.403       .  A
C1133      C1134   1.393       .  A
C1133      F1140   1.358       .  S
C1134      C1135   1.406       .  A
C1134      F1139   1.358       .  S
C1135      C1136   1.406       .  A
C1136      F1137   1.358       .  S
C1141      C1142   1.409       .  A
C1141      C1146   1.405       .  A
C1141      F1148   1.358       .  S
C1142      C1143   1.404       .  A
C1143      C1144   1.393       .  A
C1143      F1150   1.358       .  S
C1144      C1145   1.406       .  A
C1144      F1149   1.358       .  S
C1145      C1146   1.409       .  A
C1146      F1147   1.358       .  S
C1151      C1152   1.408       .  A
C1151      C1156   1.404       .  A
C1151      F1158   1.358       .  S
C1152      C1153   1.409       .  A
C1153      C1154   1.400       .  A
C1153      F1160   1.358       .  S
C1154      C1155   1.408       .  A
C1154      F1159   1.358       .  S
C1155      C1156   1.410       .  A
C1156      F1157   1.358       .  S
C1161      C1162   1.404       .  A
C1161      C1166   1.395       .  A
C1161      F1168   1.359       .  S
C1162      C1163   1.404       .  A
C1163      C1164   1.400       .  A
C1163      F1170   1.358       .  S
C1164      C1165   1.407       .  A
C1164      F1169   1.357       .  S
C1165      C1166   1.407       .  A
C1166      F1167   1.358       .  S
C1171      C1172   1.409       .  A
C1171      C1176   1.398       .  A
C1171      F1178   1.358       .  S
C1172      C1173   1.408       .  A
C1173      C1174   1.402       .  A
C1173      F1180   1.358       .  S
C1174      C1175   1.410       .  A
C1174      F1179   1.358       .  S
C1175      C1176   1.407       .  A
C1176      F1177   1.358       .  S
C1181      C1182   1.409       .  A
C1181      C1186   1.398       .  A
C1181      F1188   1.358       .  S
C1182      C1183   1.408       .  A
C1183      C1184   1.397       .  A
C1183      F1190   1.358       .  S
C1184      C1185   1.408       .  A
C1184      F1189   1.358       .  S
C1185      C1186   1.407       .  A
C1186      F1187   1.358       .  S
C1191      C1192   1.407       .  A
C1191      C1196   1.402       .  A
C1191      F1198   1.358       .  S
C1192      C1193   1.407       .  A
C1193      C1194   1.395       .  A
C1193      F1200   1.359       .  S
C1194      C1195   1.405       .  A
C1194      F1199   1.358       .  S
C1195      C1196   1.407       .  A
C1196      F1197   1.357       .  S
C1201      C1202   1.417       .  A
C1201      C1206   1.409       .  A
C1201      F1208   1.355       .  S
C1202      C1203   1.409       .  A
C1203      C1204   1.384       .  A
C1203      F1210   1.359       .  S
C1204      C1205   1.411       .  A
C1204      F1209   1.359       .  S
C1205      C1206   1.415       .  A
C1206      F1207   1.355       .  S
C1211      C1212   1.415       .  A
C1211      C1216   1.393       .  A
C1211      F1218   1.350       .  S
C1212      C1213   1.414       .  A
C1213      C1214   1.399       .  A
C1213      F1220   1.356       .  S
C1214      C1215   1.413       .  A
C1214      F1219   1.357       .  S
C1215      C1216   1.409       .  A
C1216      F1217   1.351       .  S
C1221      C1222   1.407       .  A
C1221      C1226   1.403       .  A
C1221      F1228   1.354       .  S
C1222      C1223   1.404       .  A
C1223      C1224   1.397       .  A
C1223      F1230   1.358       .  S
C1224      C1225   1.409       .  A
C1224      F1229   1.358       .  S
C1225      C1226   1.404       .  A
C1226      F1227   1.354       .  S
C1231      C1232   1.412       .  A
C1231      C1236   1.389       .  A
C1231      F1238   1.358       .  S
C1232      C1233   1.413       .  A
C1233      C1234   1.405       .  A
C1233      F1240   1.355       .  S
C1234      C1235   1.416       .  A
C1234      F1239   1.354       .  S
C1235      C1236   1.410       .  A
C1236      F1237   1.359       .  S
C1241      C1242   1.405       .  A
C1241      C1246   1.403       .  A
C1241      F1248   1.357       .  S
C1242      C1243   1.401       .  A
C1243      C1244   1.399       .  A
C1243      F1250   1.358       .  S
C1244      C1245   1.413       .  A
C1244      F1249   1.358       .  S
C1245      C1246   1.409       .  A
C1246      F1247   1.354       .  S
C1251      C1252   1.410       .  A
C1251      C1256   1.402       .  A
C1251      F1258   1.358       .  S
C1252      C1253   1.408       .  A
C1253      C1254   1.391       .  A
C1253      F1260   1.353       .  S
C1254      C1255   1.411       .  A
C1254      F1259   1.352       .  S
C1255      C1256   1.412       .  A
C1256      F1257   1.357       .  S
C1261      C1262   1.404       .  A
C1261      C1266   1.394       .  A
C1261      F1268   1.358       .  S
C1262      C1263   1.407       .  A
C1263      C1264   1.404       .  A
C1263      F1270   1.358       .  S
C1264      C1265   1.410       .  A
C1264      F1269   1.358       .  S
C1265      C1266   1.407       .  A
C1266      F1267   1.358       .  S
C1271      C1272   1.407       .  A
C1271      C1276   1.396   1_556  A
C1271      F1278   1.358       .  S
C1272      C1273   1.409       .  A
C1273      C1274   1.405   1_556  A
C1273      F1280   1.358       .  S
C1274      C1275   1.409       .  A
C1274      F1279   1.358       .  S
C1275      C1276   1.406       .  A
C1276      F1277   1.358       .  S
C1281      C1282   1.409       .  A
C1281      C1286   1.397       .  A
C1281      F1288   1.358       .  S
C1282      C1283   1.408       .  A
C1283      C1284   1.397       .  A
C1283      F1290   1.358       .  S
C1284      C1285   1.407       .  A
C1284      F1289   1.358       .  S
C1285      C1286   1.407       .  A
C1286      F1287   1.358       .  S
C1291      C1292   1.409       .  A
C1291      C1296   1.403       .  A
C1291      F1298   1.358       .  S
C1292      C1293   1.408       .  A
C1293      C1294   1.402       .  A
C1293      F1300   1.358       .  S
C1294      C1295   1.409   1_556  A
C1294      F1299   1.358   1_556  S
C1295      C1296   1.410   1_554  A
C1296      F1297   1.358   1_556  S
C1301      C1302   1.404       .  A
C1301      C1306   1.394       .  A
C1301      F1308   1.358       .  S
C1302      C1303   1.408       .  A
C1303      C1304   1.403       .  A
C1303      F1310   1.358       .  S
C1304      C1305   1.408       .  A
C1304      F1309   1.358       .  S
C1305      C1306   1.405       .  A
C1306      F1307   1.358       .  S
C1311      C1312   1.408       .  A
C1311      C1316   1.404       .  A
C1311      F1318   1.358       .  S
C1312      C1313   1.409       .  A
C1313      C1314   1.401       .  A
C1313      F1320   1.358       .  S
C1314      C1315   1.408       .  A
C1314      F1319   1.358       .  S
C1315      C1316   1.411       .  A
C1316      F1317   1.358       .  S
C1321      C1322   1.405       .  A
C1321      C1326   1.394       .  A
C1321      F1328   1.358       .  S
C1322      C1323   1.403       .  A
C1323      C1324   1.394       .  A
C1323      F1330   1.358       .  S
C1324      C1325   1.408       .  A
C1324      F1329   1.358       .  S
C1325      C1326   1.406       .  A
C1326      F1327   1.358       .  S
C1331      C1332   1.407       .  A
C1331      C1336   1.399       .  A
C1331      F1338   1.358       .  S
C1332      C1333   1.409       .  A
C1333      C1334   1.404       .  A
C1333      F1340   1.358       .  S
C1334      C1335   1.410       .  A
C1334      F1339   1.358       .  S
C1335      C1336   1.407       .  A
C1336      F1337   1.358       .  S
C1341      C1342   1.410       .  A
C1341      C1346   1.392       .  A
C1341      F1348   1.359       .  S
C1342      C1343   1.419       .  A
C1343      C1344   1.406       .  A
C1343      F1350   1.352       .  S
C1344      C1345   1.414       .  A
C1344      F1349   1.353       .  S
C1345      C1346   1.413       .  A
C1346      F1347   1.359       .  S
C1351      C1352   1.404       .  A
C1351      C1356   1.393       .  A
C1351      F1358   1.353       .  S
C1352      C1353   1.413       .  A
C1353      C1354   1.400       .  A
C1353      F1360   1.358       .  S
C1354      C1355   1.406       .  A
C1354      F1359   1.358       .  S
C1355      C1356   1.409       .  A
C1356      F1357   1.355       .  S
C1361      C1362   1.409       .  A
C1361      C1366   1.404       .  A
C1361      F1368   1.356       .  S
C1362      C1363   1.417       .  A
C1363      C1364   1.403       .  A
C1363      F1370   1.358       .  S
C1364      C1365   1.403       .  A
C1364      F1369   1.358       .  S
C1365      C1366   1.405       .  A
C1366      F1367   1.355       .  S
C1371      C1372   1.408       .  A
C1371      C1376   1.401       .  A
C1371      F1378   1.358       .  S
C1372      C1373   1.404       .  A
C1373      C1374   1.404       .  A
C1373      F1380   1.357       .  S
C1374      C1375   1.419       .  A
C1374      F1379   1.355       .  S
C1375      C1376   1.413       .  A
C1376      F1377   1.358       .  S
C1381      C1382   1.416       .  A
C1381      C1386   1.390       .  A
C1381      F1388   1.359       .  S
C1382      C1383   1.420       .  A
C1383      C1384   1.401       .  A
C1383      F1390   1.353       .  S
C1384      C1385   1.396       .  A
C1384      F1389   1.358       .  S
C1385      C1386   1.399       .  A
C1386      F1387   1.359       .  S
C1391      C1392   1.405       .  A
C1391      C1396   1.402       .  A
C1391      F1398   1.357       .  S
C1392      C1393   1.404       .  A
C1393      C1394   1.393       .  A
C1393      F1400   1.358       .  S
C1394      C1395   1.406       .  A
C1394      F1399   1.358       .  S
C1395      C1396   1.404       .  A
C1396      F1397   1.358       .  S
C1401      C1402   1.408       .  A
C1401      C1406   1.398       .  A
C1401      F1408   1.358       .  S
C1402      C1403   1.406       .  A
C1403      C1404   1.395       .  A
C1403      F1410   1.358       .  S
C1404      C1405   1.407       .  A
C1404      F1409   1.358       .  S
C1405      C1406   1.409       .  A
C1406      F1407   1.358       .  S
C1411      C1412   1.405       .  A
C1411      C1416   1.395       .  A
C1411      F1418   1.358       .  S
C1412      C1413   1.408       .  A
C1413      C1414   1.405       .  A
C1413      F1420   1.357       .  S
C1414      C1415   1.406       .  A
C1414      F1419   1.358       .  S
C1415      C1416   1.404       .  A
C1416      F1417   1.359       .  S
C1421      C1422   1.408       .  A
C1421      C1426   1.398       .  A
C1421      F1428   1.358       .  S
C1422      C1423   1.406       .  A
C1423      C1424   1.397       .  A
C1423      F1430   1.358       .  S
C1424      C1425   1.409       .  A
C1424      F1429   1.358       .  S
C1425      C1426   1.408       .  A
C1426      F1427   1.358       .  S
C1431      C1432   1.407       .  A
C1431      C1436   1.394       .  A
C1431      F1438   1.358       .  S
C1432      C1433   1.409       .  A
C1433      C1434   1.403       .  A
C1433      F1440   1.357       .  S
C1434      C1435   1.405       .  A
C1434      F1439   1.358       .  S
C1435      C1436   1.405       .  A
C1436      F1437   1.359       .  S
C1441      C1442   1.409       .  A
C1441      C1446   1.404       .  A
C1441      F1448   1.357       .  S
C1442      C1443   1.407       .  A
C1443      C1444   1.396       .  A
C1443      F1450   1.358       .  S
C1444      C1445   1.408       .  A
C1444      F1449   1.358       .  S
C1445      C1446   1.407       .  A
C1446      F1447   1.357       .  S
C1451      C1452   1.408       .  A
C1451      C1456   1.397       .  A
C1451      F1458   1.358       .  S
C1452      C1453   1.408       .  A
C1453      C1454   1.398       .  A
C1453      F1460   1.358       .  S
C1454      C1455   1.406       .  A
C1454      F1459   1.358       .  S
C1455      C1456   1.407       .  A
C1456      F1457   1.358       .  S
C1461      C1462   1.408       .  A
C1461      C1466   1.397       .  A
C1461      F1468   1.358       .  S
C1462      C1463   1.408       .  A
C1463      C1464   1.399       .  A
C1463      F1470   1.358       .  S
C1464      C1465   1.409       .  A
C1464      F1469   1.358       .  S
C1465      C1466   1.406       .  A
C1466      F1467   1.358       .  S
C1471      C1472   1.407       .  A
C1471      C1476   1.403       .  A
C1471      F1478   1.358       .  S
C1472      C1473   1.405       .  A
C1473      C1474   1.396       .  A
C1473      F1480   1.358       .  S
C1474      C1475   1.407       .  A
C1474      F1479   1.358       .  S
C1475      C1476   1.407       .  A
C1476      F1477   1.357       .  S
C1481      C1482   1.410       .  A
C1481      C1486   1.402       .  A
C1481      F1488   1.358       .  S
C1482      C1483   1.401       .  A
C1483      C1484   1.403       .  A
C1483      F1490   1.358       .  S
C1484      C1485   1.424       .  A
C1484      F1489   1.356       .  S
C1485      C1486   1.411       .  A
C1486      F1487   1.358       .  S
C1491      C1492   1.417       .  A
C1491      C1496   1.407       .  A
C1491      F1498   1.353       .  S
C1492      C1493   1.410       .  A
C1493      C1494   1.388       .  A
C1493      F1500   1.359       .  S
C1494      C1495   1.413       .  A
C1494      F1499   1.359       .  S
C1495      C1496   1.413       .  A
C1496      F1497   1.354       .  S
C1501      C1502   1.403       .  A
C1501      C1506   1.398       .  A
C1501      F1508   1.358       .  S
C1502      C1503   1.402       .  A
C1503      C1504   1.394       .  A
C1503      F1510   1.359       .  S
C1504      C1505   1.409       .  A
C1504      F1509   1.358       .  S
C1505      C1506   1.405       .  A
C1506      F1507   1.358       .  S
C1511      C1512   1.418       .  A
C1511      C1516   1.406       .  A
C1511      F1518   1.354       .  S
C1512      C1513   1.410       .  A
C1513      C1514   1.392       .  A
C1513      F1520   1.358       .  S
C1514      C1515   1.413       .  A
C1514      F1519   1.359       .  S
C1515      C1516   1.413       .  A
C1516      F1517   1.355       .  S
C1521      C1522   1.409       .  A
C1521      C1526   1.411       .  A
C1521      F1528   1.358       .  S
C1522      C1523   1.404       .  A
C1523      C1524   1.394       .  A
C1523      F1530   1.358       .  S
C1524      C1525   1.408       .  A
C1524      F1529   1.358       .  S
C1525      C1526   1.409       .  A
C1526      F1527   1.358       .  S
C1531      C1532   1.418       .  A
C1531      C1536   1.414       .  A
C1531      F1538   1.354       .  S
C1532      C1533   1.409       .  A
C1533      C1534   1.384       .  A
C1533      F1540   1.359       .  S
C1534      C1535   1.412       .  A
C1534      F1539   1.360       .  S
C1535      C1536   1.415       .  A
C1536      F1537   1.354       .  S
C1541      C1542   1.398       .  A
C1541      C1546   1.393       .  A
C1541      F1548   1.358       .  S
C1542      C1543   1.398       .  A
C1543      C1544   1.402       .  A
C1543      F1550   1.358       .  S
C1544      C1545   1.421       .  A
C1544      F1549   1.353       .  S
C1545      C1546   1.415       .  A
C1546      F1547   1.359       .  S
C1551      C1552   1.406       .  A
C1551      C1556   1.398       .  A
C1551      F1558   1.358       .  S
C1552      C1553   1.408       .  A
C1553      C1554   1.394       .  A
C1553      F1560   1.358       .  S
C1554      C1555   1.404       .  A
C1554      F1559   1.358       .  S
C1555      C1556   1.405       .  A
C1556      F1557   1.357       .  S
C1561      C1562   1.409       .  A
C1561      C1566   1.398       .  A
C1561      F1568   1.358       .  S
C1562      C1563   1.407       .  A
C1563      C1564   1.399       .  A
C1563      F1570   1.358       .  S
C1564      C1565   1.409       .  A
C1564      F1569   1.358       .  S
C1565      C1566   1.408       .  A
C1566      F1567   1.358       .  S
C1571      C1572   1.407       .  A
C1571      C1576   1.402       .  A
C1571      F1578   1.358       .  S
C1572      C1573   1.407       .  A
C1573      C1574   1.392       .  A
C1573      F1580   1.358       .  S
C1574      C1575   1.404       .  A
C1574      F1579   1.358       .  S
C1575      C1576   1.408       .  A
C1576      F1577   1.358       .  S
C1581      C1582   1.406   1_556  A
C1581      C1586   1.399       .  A
C1581      F1588   1.358   1_556  S
C1582      C1583   1.408   1_554  A
C1583      C1584   1.404       .  A
C1583      F1590   1.358   1_556  S
C1584      C1585   1.410       .  A
C1584      F1589   1.358       .  S
C1585      C1586   1.408       .  A
C1586      F1587   1.358       .  S
C1591      C1592   1.408       .  A
C1591      C1596   1.398       .  A
C1591      F1598   1.358       .  S
C1592      C1593   1.408       .  A
C1593      C1594   1.396       .  A
C1593      F1600   1.358       .  S
C1594      C1595   1.407       .  A
C1594      F1599   1.358       .  S
C1595      C1596   1.407       .  A
C1596      F1597   1.358       .  S
C1601      C1602   1.409       .  A
C1601      C1606   1.403       .  A
C1601      F1608   1.358       .  S
C1602      C1603   1.408       .  A
C1603      C1604   1.398       .  A
C1603      F1610   1.358       .  S
C1604      C1605   1.408       .  A
C1604      F1609   1.358       .  S
C1605      C1606   1.408       .  A
C1606      F1607   1.357       .  S
C1611      C1612   1.402       .  A
C1611      C1616   1.399       .  A
C1611      F1618   1.358       .  S
C1612      C1613   1.406       .  A
C1613      C1614   1.404       .  A
C1613      F1620   1.358       .  S
C1614      C1615   1.411       .  A
C1614      F1619   1.358       .  S
C1615      C1616   1.410       .  A
C1616      F1617   1.357       .  S
C1621      C1622   1.407       .  A
C1621      C1626   1.396       .  A
C1621      F1628   1.358       .  S
C1622      C1623   1.409       .  A
C1623      C1624   1.401       .  A
C1623      F1630   1.358       .  S
C1624      C1625   1.409       .  A
C1624      F1629   1.358       .  S
C1625      C1626   1.408       .  A
C1626      F1627   1.358       .  S
C1631      C1632   1.406       .  A
C1631      C1636   1.395       .  A
C1631      F1638   1.358       .  S
C1632      C1633   1.408       .  A
C1633      C1634   1.403       .  A
C1633      F1640   1.358       .  S
C1634      C1635   1.408       .  A
C1634      F1639   1.357       .  S
C1635      C1636   1.407       .  A
C1636      F1637   1.358       .  S
C1641      C1642   1.410       .  A
C1641      C1646   1.406       .  A
C1641      F1648   1.358       .  S
C1642      C1643   1.407       .  A
C1643      C1644   1.400       .  A
C1643      F1650   1.358       .  S
C1644      C1645   1.407   1_556  A
C1644      F1649   1.358   1_556  S
C1645      C1646   1.410   1_554  A
C1646      F1647   1.358   1_556  S
C1651      C1652   1.417       .  A
C1651      C1656   1.395       .  A
C1651      F1658   1.359       .  S
C1652      C1653   1.421       .  A
C1653      C1654   1.408       .  A
C1653      F1660   1.352       .  S
C1654      C1655   1.402       .  A
C1654      F1659   1.358       .  S
C1655      C1656   1.400       .  A
C1656      F1657   1.358       .  S
C1661      C1662   1.409       .  A
C1661      C1666   1.380       .  A
C1661      F1668   1.360       .  S
C1662      C1663   1.416       .  A
C1663      C1664   1.408       .  A
C1663      F1670   1.354       .  S
C1664      C1665   1.415       .  A
C1664      F1669   1.354       .  S
C1665      C1666   1.410       .  A
C1666      F1667   1.360       .  S
C1671      C1672   1.405       .  A
C1671      C1676   1.400       .  A
C1671      F1678   1.358       .  S
C1672      C1673   1.405       .  A
C1673      C1674   1.394       .  A
C1673      F1680   1.358       .  S
C1674      C1675   1.405       .  A
C1674      F1679   1.358       .  S
C1675      C1676   1.408       .  A
C1676      F1677   1.358       .  S
C1681      C1682   1.413       .  A
C1681      C1686   1.408       .  A
C1681      F1688   1.356       .  S
C1682      C1683   1.411       .  A
C1683      C1684   1.392       .  A
C1683      F1690   1.358       .  S
C1684      C1685   1.412       .  A
C1684      F1689   1.358       .  S
C1685      C1686   1.419       .  A
C1686      F1687   1.356       .  S
C1691      C1692   1.418       .  A
C1691      C1696   1.400       .  A
C1691      F1698   1.358       .  S
C1692      C1693   1.405       .  A
C1693      C1694   1.400       .  A
C1693      F1700   1.356       .  S
C1694      C1695   1.411       .  A
C1694      F1699   1.358       .  S
C1695      C1696   1.402       .  A
C1696      F1697   1.358       .  S
C1701      C1702   1.415       .  A
C1701      C1706   1.410       .  A
C1701      F1708   1.353       .  S
C1702      C1703   1.412       .  A
C1703      C1704   1.383       .  A
C1703      F1710   1.360       .  S
C1704      C1705   1.410       .  A
C1704      F1709   1.360       .  S
C1705      C1706   1.415       .  A
C1706      F1707   1.353       .  S
C1711      C1712   1.404       .  A
C1711      C1716   1.403       .  A
C1711      F1718   1.358       .  S
C1712      C1713   1.402       .  A
C1713      C1714   1.399       .  A
C1713      F1720   1.354       .  S
C1714      C1715   1.411       .  A
C1714      F1719   1.356       .  S
C1715      C1716   1.416       .  A
C1716      F1717   1.357       .  S
C1721      C1722   1.408       .  A
C1721      C1726   1.393       .  A
C1721      F1728   1.353       .  S
C1722      C1723   1.412       .  A
C1723      C1724   1.402       .  A
C1723      F1730   1.358       .  S
C1724      C1725   1.407       .  A
C1724      F1729   1.357       .  S
C1725      C1726   1.409       .  A
C1726      F1727   1.356       .  S
C1731      C1732   1.409       .  A
C1731      C1736   1.395       .  A
C1731      F1738   1.358       .  S
C1732      C1733   1.409       .  A
C1733      C1734   1.404       .  A
C1733      F1740   1.357       .  S
C1734      C1735   1.407       .  A
C1734      F1739   1.358       .  S
C1735      C1736   1.404       .  A
C1736      F1737   1.358       .  S
C1741      C1742   1.407       .  A
C1741      C1746   1.395       .  A
C1741      F1748   1.358       .  S
C1742      C1743   1.408       .  A
C1743      C1744   1.399       .  A
C1743      F1750   1.358       .  S
C1744      C1745   1.407       .  A
C1744      F1749   1.358       .  S
C1745      C1746   1.408       .  A
C1746      F1747   1.358       .  S
C1751      C1752   1.408       .  A
C1751      C1756   1.408       .  A
C1751      F1758   1.358       .  S
C1752      C1753   1.406       .  A
C1753      C1754   1.401       .  A
C1753      F1760   1.358       .  S
C1754      C1755   1.407       .  A
C1754      F1759   1.358       .  S
C1755      C1756   1.412       .  A
C1756      F1757   1.358       .  S
