geometry optimzed in LAMMPS
_audit_creation_date              2020-11-30 
_audit_creation_method            'lammps2cif' 
_symmetry_space_group_name_H-M    'P1' 
_symmetry_Int_Tables_number       1 
_symmetry_cell_setting            triclinic 
loop_ 
_symmetry_equiv_pos_as_xyz 
  x,y,z 
_cell_length_a                    35.51378088 
_cell_length_b                    46.98761203779055 
_cell_length_c                    36.009874452787805 
_cell_angle_alpha                 90.15366088302099 
_cell_angle_beta                  89.82665529289271 
_cell_angle_gamma                 90.11838954530381 
loop_ 
_atom_site_label 
_atom_site_type_symbol 
_atom_site_fract_x 
_atom_site_fract_y 
_atom_site_fract_z 
_atom_site_charge 
O1          O  0.42500814  0.45771715  0.56996430    -0.75300
O2          O  0.45806132  0.42472121  0.53676281    -0.54200
C3          C  0.43365533  0.43183213  0.56166113     0.78400
O4          O  0.42364576  0.55639977  0.42453264    -0.59900
O5          O  0.45585847  0.58874343  0.45954146    -0.52900
C6          C  0.43165935  0.58211138  0.43438143     0.70400
O7          O  0.42160279  0.46055798  0.42274161    -0.74500
O8          O  0.45516473  0.42666583  0.45343144    -0.55000
C9          C  0.42997350  0.43445442  0.42984095     0.76400
O10         O  0.42784347  0.55424403  0.57569125    -0.59600
O11         O  0.45972842  0.58780648  0.54247546    -0.52700
C12         C  0.43652849  0.58032002  0.56817585     0.73000
Zr13       Zr  0.44325765  0.50618606  0.55311141     2.54700
O14         O  0.37468091  0.50653101  0.55222362    -0.80200
O15         O  0.44420062  0.50483735  0.62073509    -0.93600
Zr16       Zr  0.44107895  0.50808561  0.44282338     2.64700
O17         O  0.37260269  0.50996801  0.44593249    -0.98500
O18         O  0.44287579  0.50755103  0.37525801    -0.80600
O19         O  0.44124573  0.47935055  0.49705335    -0.84000
O20         O  0.44122270  0.53473573  0.49895316    -2.18700
O21         O  0.57179616  0.55406309  0.57102062    -0.67400
O22         O  0.53906810  0.58815255  0.53997275    -0.51900
C23         C  0.56328281  0.58023685  0.56433161     0.71400
O24         O  0.57122207  0.46065402  0.42009551    -0.60300
O25         O  0.54043728  0.42629081  0.45312536    -0.52200
C26         C  0.56407799  0.43448890  0.42804402     0.73200
O27         O  0.57129676  0.55630984  0.42250438    -0.71700
O28         O  0.53946648  0.58857857  0.45798475    -0.50300
C29         C  0.56357971  0.58198777  0.43264344     0.74600
O30         O  0.57594919  0.45752577  0.56479457    -0.67000
O31         O  0.54110679  0.42507278  0.53252516    -0.54200
C32         C  0.56724349  0.43178029  0.55562300     0.73000
Zr33       Zr  0.55515956  0.50593026  0.55038664     2.77500
O34         O  0.62370938  0.50627657  0.54832256    -0.97700
O35         O  0.55540360  0.50414857  0.61793986    -0.78600
Zr36       Zr  0.55255002  0.50815290  0.44023592     2.70100
O37         O  0.62107336  0.50866636  0.44069719    -0.79800
O38         O  0.54818966  0.50852854  0.37273649    -0.98900
Zr39       Zr  0.49787269  0.45207981  0.49472292     2.21500
Zr40       Zr  0.49822474  0.56164578  0.49858247     2.11100
O41         O  0.55495764  0.53462823  0.49633599    -2.47600
O42         O  0.55443773  0.47942090  0.49424628    -0.79600
O43         O  0.49939480  0.53349814  0.55345241    -0.71800
O44         O  0.49673867  0.48040707  0.43997227    -2.32800
O45         O  0.49911613  0.47837189  0.55169252    -2.29000
O46         O  0.49688105  0.53591770  0.44160536    -0.73600
H47         H  0.41953339  0.54708899  0.49989594     0.78400
H48         H  0.49626910  0.46851425  0.41807074     0.79500
H49         H  0.57679707  0.54692042  0.49630951     0.81800
H50         H  0.49971119  0.46577857  0.57283297     0.79400
H51         H  0.46218015  0.52191878  0.36864736     0.42400
H52         H  0.57337811  0.50239475  0.36402995     0.41400
H53         H  0.62807278  0.49325733  0.45804907     0.41000
H54         H  0.63022048  0.51958410  0.52802001     0.39000
H55         H  0.53533263  0.51754076  0.62563411     0.42100
H56         H  0.45585801  0.48635719  0.62705372     0.36900
H57         H  0.36786131  0.52554682  0.54260469     0.43000
H58         H  0.36458908  0.51254725  0.41984460     0.39400
H59         H  0.63140357  0.51631815  0.57129660     0.44300
H60         H  0.41743374  0.50269013  0.62801207     0.43100
H61         H  0.36459955  0.49037528  0.45227543     0.43200
H62         H  0.53135530  0.49240054  0.36648592     0.43600
O63         O  0.91936340  0.46126280  0.92466088    -0.75300
O64         O  0.94898999  0.42690729  0.95831693    -0.54200
C65         C  0.92583325  0.43505625  0.93297583     0.78400
O66         O  0.06983474  0.55398786  0.92762195    -0.59900
O67         O  0.03774966  0.58862803  0.95879775    -0.52900
C68         C  0.06279235  0.58024544  0.93530421     0.70400
O69         O  0.05945152  0.45850596  0.92235631    -0.74500
O70         O  0.03030471  0.42544598  0.95893108    -0.55000
C71         C  0.05151708  0.43267432  0.93141770     0.76400
O72         O  0.91911981  0.55758620  0.92576464    -0.59600
O73         O  0.95333020  0.59038903  0.95812495    -0.52700
C74         C  0.92824182  0.58346323  0.93399049     0.73000
Zr75       Zr  0.93683658  0.50922464  0.94435738     2.54700
O76         O  0.93626306  0.50963825  0.87678189    -0.80200
O77         O  0.86836987  0.50887831  0.94894805    -0.93600
Zr78       Zr  0.04834329  0.50663633  0.94550951     2.64700
O79         O  0.05311220  0.50687685  0.87802127    -0.98500
O80         O  0.11622997  0.50311052  0.95352033    -0.80600
O81         O  0.99147236  0.48029259  0.94487258    -0.84000
O82         O  0.99377018  0.53567010  0.94357326    -2.18700
O83         O  0.91571457  0.55908591  0.06785420    -0.67400
O84         O  0.95287296  0.59172891  0.03840576    -0.51900
C85         C  0.92578295  0.58484425  0.06040323     0.71400
O86         O  0.05992096  0.46107362  0.07792724    -0.60300
O87         O  0.02871541  0.42679811  0.04530197    -0.52200
C88         C  0.05134262  0.43497842  0.07124540     0.73200
O89         O  0.06693604  0.55570710  0.07265995    -0.71700
O90         O  0.03501737  0.59000102  0.04119811    -0.50300
C91         C  0.05949014  0.58187019  0.06526796     0.74600
O92         O  0.91489522  0.46293104  0.07275270    -0.67000
O93         O  0.94638603  0.42810254  0.04123690    -0.54200
C94         C  0.92170722  0.43665001  0.06505197     0.73000
Zr95       Zr  0.93522178  0.51027655  0.05374202     2.77500
O96         O  0.93528169  0.51076159  0.12141843    -0.97700
O97         O  0.86676516  0.51054492  0.05076879    -0.78600
Zr98       Zr  0.04670741  0.50822479  0.05466545     2.70100
O99         O  0.04770864  0.51058915  0.12221493    -0.79800
O100        O  0.11494995  0.50556389  0.04893086    -0.98900
Zr101      Zr  0.99017913  0.45295856  0.00062281     2.21500
Zr102      Zr  0.99403326  0.56365766  0.99910660     2.11100
O103        O  0.99193214  0.53688262  0.05522306    -2.47600
O104        O  0.99003502  0.48154869  0.05542808    -0.79600
O105        O  0.93635888  0.53766220  0.99868251    -0.71800
O106        O  0.04782813  0.47917044  0.00066324    -2.32800
O107        O  0.93464790  0.48167585  0.99942499    -2.29000
O108        O  0.04951945  0.53541745  0.99964609    -0.73600
H109        H  0.99453157  0.54763727  0.92182807     0.78400
H110        H  0.06928222  0.46653853  0.00112819     0.79500
H111        H  0.99195893  0.54922131  0.07672070     0.81800
H112        H  0.91241032  0.46982477  0.99930359     0.79400
H113        H  0.12492992  0.49138036  0.93230390     0.42400
H114        H  0.12189853  0.52213184  0.03339428     0.41400
H115        H  0.07452354  0.51359355  0.12860015     0.41000
H116        H  0.96127045  0.51627732  0.12827225     0.39000
H117        H  0.85846225  0.50471082  0.07589990     0.42100
H118        H  0.86224177  0.49315778  0.96619802     0.36900
H119        H  0.96254208  0.51416750  0.86965527     0.43000
H120        H  0.04018369  0.52449579  0.87014907     0.39400
H121        H  0.91965999  0.52732643  0.12857665     0.44300
H122        H  0.85976276  0.50196713  0.92439412     0.43100
H123        H  0.08010086  0.51046354  0.87282804     0.43200
H124        H  0.12447783  0.51041706  0.07397321     0.43600
C125        C  0.73713809  0.25759134  0.75445464    -0.02500
O126        O  0.55882412  0.05909727  0.92940172    -0.75300
O127        O  0.52750063  0.09231118  0.96372688    -0.54200
C128        C  0.54983981  0.08499901  0.93713084     0.78400
O129        O  0.41935646  0.96265032  0.92807724    -0.59900
O130        O  0.45215531  0.92892412  0.95981684    -0.52900
C131        C  0.42821886  0.93664952  0.93507575     0.70400
O132        O  0.41714219  0.05896331  0.93056326    -0.74500
O133        O  0.44770599  0.09157072  0.96653610    -0.55000
C134        C  0.42441170  0.08475948  0.94071749     0.76400
O135        O  0.56751500  0.96367879  0.93354611    -0.59600
O136        O  0.53353971  0.92941656  0.96334080    -0.52700
C137        C  0.55894503  0.93751577  0.94006373     0.73000
Zr138      Zr  0.54723196  0.01109439  0.95226329     2.54700
O139        O  0.55151868  0.00758959  0.88492091    -0.80200
O140        O  0.61508656  0.01615879  0.95908415    -0.93600
Zr141      Zr  0.43564970  0.01058060  0.94832370     2.64700
O142        O  0.44014401  0.01166675  0.88082769    -0.98500
O143        O  0.36713995  0.00868755  0.94680462    -0.80600
O144        O  0.49124910  0.03835956  0.94995669    -0.84000
O145        O  0.49180669  0.98330655  0.94892205    -2.18700
O146        O  0.56167553  0.96119771  0.07973661    -0.67400
O147        O  0.53136540  0.92778031  0.04482488    -0.51900
C148        C  0.55460074  0.93516776  0.07055694     0.71400
O149        O  0.41361021  0.05636477  0.07899305    -0.60300
O150        O  0.44741413  0.09021385  0.04812414    -0.52200
C151        C  0.42247230  0.08245259  0.07204484     0.73200
O152        O  0.41048544  0.95998462  0.07225518    -0.71700
O153        O  0.44608176  0.92765243  0.04051989    -0.50300
C154        C  0.41936237  0.93426496  0.06316746     0.74600
O155        O  0.56142886  0.05745646  0.08070787    -0.67000
O156        O  0.53025141  0.09105119  0.04720444    -0.54200
C157        C  0.55419493  0.08344800  0.07198262     0.73000
Zr158      Zr  0.54284156  0.00943150  0.06234092     2.77500
O159        O  0.53574297  0.00985997  0.12962303    -0.97700
O160        O  0.61114770  0.00941870  0.06746198    -0.78600
Zr161      Zr  0.43138575  0.00856674  0.05835723     2.70100
O162        O  0.43079336  0.00636680  0.12589144    -0.79800
O163        O  0.36286006  0.00993476  0.05557872    -0.98900
Zr164      Zr  0.48891722  0.06458467  0.00644202     2.21500
Zr165      Zr  0.49052370  0.95502799  0.00382271     2.11100
O166        O  0.48745826  0.98119814  0.06063220    -2.47600
O167        O  0.48681400  0.03676515  0.06170181    -0.79600
O168        O  0.54679266  0.98258589  0.00656210    -0.71800
O169        O  0.43226488  0.03721582  0.00417879    -2.32800
O170        O  0.54595751  0.03789075  0.00791526    -2.29000
O171        O  0.43344075  0.98181793  0.00243042    -0.73600
H172        H  0.49294112  0.97147662  0.92697653     0.78400
H173        H  0.41040421  0.04938620  0.00392925     0.79500
H174        H  0.48667538  0.96855743  0.08173866     0.81800
H175        H  0.56771516  0.05028249  0.00849524     0.79400
H176        H  0.35885355  0.02468882  0.96276955     0.42400
H177        H  0.35696827  0.02689136  0.04042506     0.41400
H178        H  0.45666640  0.00064775  0.13270156     0.41000
H179        H  0.56147741  0.01343348  0.13908638     0.39000
H180        H  0.61990835  0.99889463  0.04522107     0.42100
H181        H  0.62530491  0.01259907  0.93389171     0.36900
H182        H  0.57726010  0.01425830  0.87882515     0.43000
H183        H  0.45532564  0.02884844  0.87530820     0.39400
H184        H  0.52184965  0.02763647  0.13513397     0.44300
H185        H  0.62275291  0.99930348  0.97363592     0.43100
H186        H  0.45689268  0.99558283  0.87430202     0.43200
H187        H  0.35586138  0.99360608  0.03957438     0.43600
C188        C  0.25058155  0.75562504  0.75735215    -0.02500
O189        O  0.92264246  0.05360862  0.43631802    -0.75300
O190        O  0.95684090  0.08660004  0.46829549    -0.54200
C191        C  0.93180781  0.07946983  0.44420829     0.78400
O192        O  0.91840759  0.95882454  0.58395380    -0.59900
O193        O  0.95034962  0.92516482  0.55077198    -0.52900
C194        C  0.92593663  0.93278799  0.57527248     0.70400
O195        O  0.91869214  0.05518277  0.57986527    -0.74500
O196        O  0.95498264  0.08760893  0.54918153    -0.55000
C197        C  0.92834412  0.08095996  0.57192577     0.76400
O198        O  0.92266107  0.95745885  0.43439375    -0.59600
O199        O  0.95280017  0.92409921  0.46919006    -0.52700
C200        C  0.92971306  0.93146676  0.44348645     0.73000
Zr201      Zr  0.94038526  0.00548924  0.45443127     2.54700
O202        O  0.87195187  0.00509670  0.45853695    -0.80200
O203        O  0.94089848  0.00793436  0.38690080    -0.93600
Zr204      Zr  0.93787965  0.00648715  0.56435785     2.64700
O205        O  0.86955397  0.00526830  0.55900894    -0.98500
O206        O  0.93605932  0.00926634  0.63183936    -0.80600
O207        O  0.93913858  0.03374227  0.50906804    -0.84000
O208        O  0.93779145  0.97830339  0.50962290    -2.18700
O209        O  0.06259437  0.95576323  0.43371237    -0.67400
O210        O  0.03351273  0.92233101  0.46945584    -0.51900
C211        C  0.05486360  0.92982288  0.44220941     0.71400
O212        O  0.07301781  0.05210616  0.58165243    -0.60300
O213        O  0.04063672  0.08536074  0.54863758    -0.52200
C214        C  0.06617330  0.07798048  0.57192477     0.73200
O215        O  0.06746152  0.95588189  0.58508301    -0.71700
O216        O  0.03318725  0.92317681  0.55266088    -0.50300
C217        C  0.05823104  0.93003333  0.57688800     0.74600
O218        O  0.07396962  0.05114876  0.44025899    -0.67000
O219        O  0.04020411  0.08550532  0.47008439    -0.54200
C220        C  0.06622721  0.07733820  0.44750179     0.73000
Zr221      Zr  0.05227448  0.00371130  0.45707389     2.77500
O222        O  0.11991311  0.99895931  0.46630861    -0.97700
O223        O  0.06037749  0.00614674  0.39000782    -0.78600
Zr224      Zr  0.04971867  0.00431802  0.56697934     2.70100
O225        O  0.11819266  0.00329902  0.56890955    -0.79800
O226        O  0.04521322  0.00504482  0.63447012    -0.98900
Zr227      Zr  0.99670496  0.05968573  0.50990174     2.21500
Zr228      Zr  0.99375076  0.95032299  0.51080536     2.11100
O229        O  0.05145378  0.97624484  0.51204080    -2.47600
O230        O  0.05234458  0.03163419  0.51174457    -0.79600
O231        O  0.99554243  0.97716954  0.45485497    -0.71800
O232        O  0.99473382  0.03313509  0.56636835    -2.32800
O233        O  0.99724383  0.03207749  0.45427996    -2.29000
O234        O  0.99283829  0.97773808  0.56665841    -0.73600
H235        H  0.91560998  0.96636547  0.50925065     0.78400
H236        H  0.99465525  0.04569558  0.58764695     0.79500
H237        H  0.07281010  0.96357548  0.51218201     0.81800
H238        H  0.99822457  0.04410897  0.43259600     0.79400
H239        H  0.95228340  0.99344061  0.64021720     0.42400
H240        H  0.03344530  0.02356631  0.64055488     0.41400
H241        H  0.12580114  0.99573634  0.54433425     0.41000
H242        H  0.12633642  0.97993248  0.45629883     0.39000
H243        H  0.08587620  0.99838152  0.38540582     0.42100
H244        H  0.91710420  0.99869088  0.37913133     0.36900
H245        H  0.86342386  0.00127407  0.43285140     0.43000
H246        H  0.86025215  0.01284002  0.58301850     0.39400
H247        H  0.13140021  0.01247546  0.44851127     0.44300
H248        H  0.96088637  0.99448717  0.37917619     0.43100
H249        H  0.86357550  0.02030368  0.54074994     0.43200
H250        H  0.02559459  0.99075232  0.64040961     0.43600
C251        C  0.74609162  0.75974216  0.24621991    -0.02500
C252        C  0.23220837  0.25815399  0.25487914    -0.02500
C253        C  0.75237410  0.25372492  0.25320188    -0.02500
C254        C  0.24141157  0.75722351  0.25375934    -0.02500
C255        C  0.24503914  0.26025842  0.75182817    -0.02500
C256        C  0.73426932  0.75833422  0.75548688    -0.02500
C257        C  0.22082222  0.23907258  0.72899198    -0.03200
C258        C  0.19773302  0.21954208  0.74834131    -0.05800
C259        C  0.17820979  0.19809552  0.72976053    -0.20900
C260        C  0.18122922  0.19514062  0.69119655     0.24800
C261        C  0.20420110  0.21430628  0.67145392    -0.18500
C262        C  0.22385404  0.23587237  0.69006699    -0.08400
C263        C  0.16172488  0.17078264  0.67319922    -0.18700
C264        C  0.15328518  0.16966970  0.63682764    -0.23500
C265        C  0.13244714  0.14546958  0.62002606     0.26900
C266        C  0.10987406  0.15052040  0.58890203    -0.20300
C267        C  0.08843700  0.12861473  0.57334216    -0.09900
C268        C  0.08951637  0.10098538  0.58828206    -0.10500
C269        C  0.11338408  0.09564233  0.61854052    -0.03400
C270        C  0.13465246  0.11764603  0.63426375    -0.18500
H271        H  0.19531080  0.22070590  0.77829632     0.10600
H272        H  0.16104961  0.18345890  0.74574638     0.10600
H273        H  0.20841078  0.21208421  0.64183938     0.10300
H274        H  0.24261915  0.24899438  0.67378961     0.11400
H275        H  0.15234898  0.15365100  0.69119596     0.11500
H276        H  0.15924442  0.18784330  0.61922536     0.13400
H277        H  0.10818766  0.17164790  0.57705400     0.09900
H278        H  0.07095887  0.13339135  0.54957676     0.12000
H279        H  0.11537719  0.07452438  0.63033614     0.08600
H280        H  0.15291013  0.11273995  0.65736874     0.11400
C281        C  0.20851937  0.24062901  0.28322722    -0.03200
C282        C  0.16864821  0.23991269  0.28309800    -0.05800
C283        C  0.14858489  0.22307376  0.30818131    -0.20900
C284        C  0.16734767  0.20528833  0.33304580     0.24800
C285        C  0.20692104  0.20525244  0.33315666    -0.18500
C286        C  0.22712201  0.22254100  0.30853177    -0.08400
C287        C  0.14459356  0.18667825  0.35776660    -0.18700
C288        C  0.15635537  0.16079378  0.36855421    -0.23500
C289        C  0.13259992  0.14032312  0.38967222     0.26900
C290        C  0.14177772  0.11136699  0.38767975    -0.20300
C291        C  0.12029417  0.09110704  0.40649648    -0.09900
C292        C  0.08909467  0.09928872  0.42816558    -0.10500
C293        C  0.08021209  0.12838863  0.43082174    -0.03400
C294        C  0.10172191  0.14872956  0.41176374    -0.18500
H295        H  0.15221012  0.25153654  0.26313184     0.10600
H296        H  0.11809094  0.22319029  0.30721917     0.10600
H297        H  0.22238799  0.19206589  0.35237894     0.10300
H298        H  0.25759663  0.22183825  0.30911987     0.11400
H299        H  0.11608600  0.19342359  0.36412079     0.11500
H300        H  0.18359305  0.15323622  0.35897958     0.13400
H301        H  0.16551234  0.10430108  0.37110549     0.09900
H302        H  0.12825164  0.06894818  0.40397176     0.12000
H303        H  0.05656511  0.13545796  0.44748775     0.08600
H304        H  0.09431915  0.17092235  0.41484469     0.11400
C305        C  0.90517455  0.90986190  0.59482735    -0.03200
C306        C  0.90764424  0.88151348  0.58239483    -0.05800
C307        C  0.88872786  0.85974727  0.60113545    -0.20900
C308        C  0.86716791  0.86567208  0.63289617     0.24800
C309        C  0.86406115  0.89413400  0.64497572    -0.18500
C310        C  0.88289834  0.91594067  0.62615814    -0.08400
C311        C  0.84691675  0.84184031  0.65140414    -0.18700
C312        C  0.83468066  0.84301259  0.68678111    -0.23500
C313        C  0.81100750  0.82065173  0.70430731     0.26900
C314        C  0.78806368  0.82856152  0.73416971    -0.20300
C315        C  0.76400409  0.80893083  0.75086408    -0.09900
C316        C  0.76124348  0.78058141  0.73764485    -0.10500
C317        C  0.78675067  0.77225869  0.70947023    -0.03400
C318        C  0.81091181  0.79205369  0.69264174    -0.18500
H319        H  0.92415339  0.87607694  0.55806573     0.10600
H320        H  0.89112456  0.83813007  0.59087198     0.10600
H321        H  0.84657119  0.89989408  0.66841875     0.10300
H322        H  0.88006931  0.93756218  0.63626857     0.11400
H323        H  0.84154029  0.82292066  0.63490225     0.11500
H324        H  0.84036487  0.86184000  0.70334262     0.13400
H325        H  0.78850381  0.85022395  0.74457723     0.09900
H326        H  0.74819057  0.81637587  0.77460590     0.12000
H327        H  0.78739257  0.75037981  0.69996939     0.08600
H328        H  0.82963050  0.78476846  0.67088384     0.11400
C329        C  0.21541978  0.77493697  0.27996079    -0.03200
C330        C  0.19178001  0.76104727  0.30593536    -0.05800
C331        C  0.16850787  0.77652600  0.33013326    -0.20900
C332        C  0.16665448  0.80626085  0.32789020     0.24800
C333        C  0.18837668  0.82016846  0.30081025    -0.18500
C334        C  0.21161104  0.80481488  0.27683407    -0.08400
C335        C  0.14298358  0.82256951  0.35465193    -0.18700
C336        C  0.12704820  0.84755744  0.34538346    -0.23500
C337        C  0.10711456  0.86712740  0.37135688     0.26900
C338        C  0.10005154  0.89482838  0.35884159    -0.20300
C339        C  0.08287205  0.91480459  0.38187755    -0.09900
C340        C  0.07177364  0.90761668  0.41813185    -0.10500
C341        C  0.07787635  0.87969348  0.43067881    -0.03400
C342        C  0.09560306  0.85960179  0.40756446    -0.18500
H343        H  0.19208485  0.73806470  0.30806607     0.10600
H344        H  0.15171741  0.76522826  0.35049440     0.10600
H345        H  0.18805702  0.84310743  0.29828954     0.10300
H346        H  0.22596328  0.81687044  0.25560666     0.11400
H347        H  0.13938655  0.81388730  0.38228859     0.11500
H348        H  0.12995071  0.85488488  0.31693988     0.13400
H349        H  0.10841350  0.90127485  0.33114213     0.09900
H350        H  0.07825599  0.93602410  0.37114436     0.12000
H351        H  0.06961071  0.87356649  0.45851095     0.08600
H352        H  0.10002598  0.83839656  0.41820391     0.11400
C353        C  0.76782736  0.78201442  0.27002960    -0.03200
C354        C  0.76805592  0.81128630  0.26107591    -0.05800
C355        C  0.78867851  0.83086664  0.28189455    -0.20900
C356        C  0.81052140  0.82220144  0.31212610     0.24800
C357        C  0.81218207  0.79296065  0.32039706    -0.18500
C358        C  0.79182345  0.77317020  0.29907622    -0.08400
C359        C  0.83187614  0.84465666  0.33259435    -0.18700
C360        C  0.84991901  0.84115471  0.36519429    -0.23500
C361        C  0.87019755  0.86479044  0.38465123     0.26900
C362        C  0.89682516  0.85808527  0.41202401    -0.20300
C363        C  0.91631165  0.87960718  0.43098022    -0.09900
C364        C  0.90952632  0.90847771  0.42311813    -0.10500
C365        C  0.88260882  0.91520083  0.39601169    -0.03400
C366        C  0.86301722  0.89373363  0.37725455    -0.18500
H367        H  0.75322241  0.81947121  0.23726574     0.10600
H368        H  0.78770240  0.85309089  0.27400105     0.10600
H369        H  0.82963441  0.78507580  0.34261881     0.10300
H370        H  0.79444421  0.75076763  0.30554489     0.11400
H371        H  0.83250741  0.86538874  0.31953084     0.11500
H372        H  0.85049603  0.82034996  0.37810653     0.13400
H373        H  0.90272401  0.83607409  0.41867665     0.09900
H374        H  0.93666593  0.87357121  0.45184324     0.12000
H375        H  0.87623996  0.93715467  0.38949448     0.08600
H376        H  0.84178671  0.90019559  0.35761471     0.11400
C377        C  0.91191125  0.10249637  0.42412025    -0.03200
C378        C  0.91873535  0.13129447  0.43259438    -0.05800
C379        C  0.89919323  0.15283058  0.41413544    -0.20900
C380        C  0.87283877  0.14611186  0.38652023     0.24800
C381        C  0.86593202  0.11735102  0.37802530    -0.18500
C382        C  0.88529026  0.09582903  0.39655414    -0.08400
C383        C  0.85202435  0.16944643  0.36803825    -0.18700
C384        C  0.83884956  0.16725057  0.33316331    -0.23500
C385        C  0.81817323  0.19045963  0.31441402     0.26900
C386        C  0.82042344  0.19256687  0.27574775    -0.20300
C387        C  0.80008566  0.21333094  0.25691097    -0.09900
C388        C  0.77684883  0.23287435  0.27612637    -0.10500
C389        C  0.77390931  0.22994931  0.31510626    -0.03400
C390        C  0.79462558  0.20926525  0.33396943    -0.18500
H391        H  0.93893895  0.13723751  0.45371454     0.10600
H392        H  0.90479514  0.17483354  0.42133096     0.10600
H393        H  0.84499087  0.11132931  0.35768783     0.10300
H394        H  0.87908706  0.07391507  0.38942251     0.11400
H395        H  0.84913247  0.18946047  0.38293020     0.11500
H396        H  0.84509443  0.14834416  0.31688364     0.13400
H397        H  0.83787562  0.17797591  0.25998680     0.09900
H398        H  0.80220134  0.21407391  0.22691915     0.12000
H399        H  0.75457054  0.24263552  0.33130882     0.08600
H400        H  0.79098597  0.20731494  0.36370860     0.11400
C401        C  0.23132102  0.77702438  0.73037413    -0.03200
C402        C  0.24473694  0.80517579  0.72558358    -0.05800
C403        C  0.22579180  0.82459372  0.70317608    -0.20900
C404        C  0.19321753  0.81670531  0.68389242     0.24800
C405        C  0.18149273  0.78807875  0.68550581    -0.18500
C406        C  0.20091691  0.76840419  0.70769166    -0.08400
C407        C  0.17335868  0.83917621  0.66223872    -0.18700
C408        C  0.13719841  0.83770100  0.65094597    -0.23500
C409        C  0.11761102  0.86176686  0.63204964     0.26900
C410        C  0.08643119  0.85595705  0.60934537    -0.20300
C411        C  0.06712661  0.87800904  0.59151231    -0.09900
C412        C  0.07823746  0.90656381  0.59633980    -0.10500
C413        C  0.10901650  0.91241972  0.61966515    -0.03400
C414        C  0.12839282  0.89037190  0.63733560    -0.18500
H415        H  0.27012643  0.81263631  0.73891505     0.10600
H416        H  0.23650821  0.84615664  0.70133919     0.10600
H417        H  0.15761443  0.78068167  0.66960080     0.10300
H418        H  0.19122269  0.74654569  0.70835234     0.11400
H419        H  0.18925672  0.85844568  0.65666367     0.11500
H420        H  0.12112092  0.81838070  0.65559226     0.13400
H421        H  0.07715107  0.83421616  0.60512062     0.09900
H422        H  0.04342956  0.87263517  0.57396766     0.12000
H423        H  0.11827531  0.93410971  0.62430149     0.08600
H424        H  0.15130608  0.89599266  0.65566315     0.11400
C425        C  0.57588686  0.10597514  0.09125104    -0.03200
C426        C  0.57688398  0.13392100  0.07740088    -0.05800
C427        C  0.59974492  0.15452960  0.09410479    -0.20900
C428        C  0.62149422  0.14780152  0.12531713     0.24800
C429        C  0.62013357  0.11995233  0.13947395    -0.18500
C430        C  0.59754071  0.09931663  0.12265750    -0.08400
C431        C  0.64630449  0.16994175  0.14166939    -0.18700
C432        C  0.65555140  0.17027868  0.17788804    -0.23500
C433        C  0.67984606  0.19234101  0.19524085     0.26900
C434        C  0.67796197  0.19599325  0.23377773    -0.20300
C435        C  0.70066400  0.21603284  0.25153779    -0.09900
C436        C  0.72583422  0.23349570  0.23135097    -0.10500
C437        C  0.72860072  0.22888760  0.19262595    -0.03400
C438        C  0.70577821  0.20874210  0.17483610    -0.18500
H439        H  0.56073927  0.13971705  0.05311096     0.10600
H440        H  0.60050455  0.17579744  0.08258246     0.10600
H441        H  0.63727894  0.11375793  0.16287075     0.10300
H442        H  0.59750509  0.07798914  0.13399551     0.11400
H443        H  0.65541436  0.18713563  0.12368795     0.11500
H444        H  0.64324621  0.15447677  0.19625576     0.13400
H445        H  0.65885876  0.18321247  0.25033001     0.09900
H446        H  0.69870632  0.21794139  0.28146023     0.12000
H447        H  0.74925777  0.23987471  0.17588110     0.08600
H448        H  0.70947069  0.20552414  0.14530337     0.11400
C449        C  0.40264335  0.10508272  0.09325576    -0.03200
C450        C  0.41436548  0.13364734  0.09092053     0.03000
C451        C  0.39608618  0.15481551  0.11152033    -0.20900
C452        C  0.36540601  0.14805498  0.13454654     0.24800
C453        C  0.35378918  0.11946480  0.13707427    -0.18500
C454        C  0.37212308  0.09828650  0.11659538    -0.08400
C455        C  0.34713970  0.17115491  0.15642479    -0.18700
C456        C  0.31145899  0.16957901  0.16916060    -0.23500
C457        C  0.29283577  0.19250213  0.19105944     0.26900
C458        C  0.25344267  0.19297728  0.19282877    -0.20300
C459        C  0.23470970  0.21389083  0.21333574    -0.09900
C460        C  0.25467581  0.23546131  0.23243468    -0.10500
C461        C  0.29444574  0.23382404  0.23212610    -0.03400
C462        C  0.31317861  0.21288233  0.21147649    -0.18500
H463        H  0.43791883  0.13966870  0.07343926     0.10600
H464        H  0.40587161  0.17660241  0.10933910     0.10600
H465        H  0.33110243  0.11316160  0.15539721     0.10300
H466        H  0.36244477  0.07651577  0.11926517     0.11400
H467        H  0.36322733  0.19054882  0.16060825     0.11500
H468        H  0.29430243  0.15126945  0.16190104     0.13400
H469        H  0.23698808  0.17714206  0.17811528     0.09900
H470        H  0.20421721  0.21356348  0.21387552     0.12000
H471        H  0.31163810  0.24812701  0.24834259     0.08600
H472        H  0.34359666  0.21234523  0.21250259     0.11400
C473        C  0.26650506  0.77701106  0.22947483    -0.03200
C474        C  0.29169857  0.79584153  0.24736301    -0.05800
C475        C  0.31216415  0.81604200  0.22732618    -0.20900
C476        C  0.30966844  0.81731877  0.18854645     0.24800
C477        C  0.28717773  0.79711451  0.17006909    -0.18500
C478        C  0.26632711  0.77699032  0.19019572    -0.08400
C479        C  0.32943058  0.84093957  0.16899622    -0.18700
C480        C  0.33812797  0.84095391  0.13253051    -0.23500
C481        C  0.35783657  0.86526577  0.11445600     0.26900
C482        C  0.38179599  0.86009553  0.08414385    -0.20300
C483        C  0.40163088  0.88244286  0.06737360    -0.09900
C484        C  0.39744965  0.91060625  0.08018794    -0.10500
C485        C  0.37232221  0.91586727  0.10967885    -0.03400
C486        C  0.35277226  0.89349190  0.12662022    -0.18500
H487        H  0.29392353  0.79587578  0.27735880     0.10600
H488        H  0.32964626  0.83106039  0.24233562     0.10600
H489        H  0.28464362  0.79719330  0.14015823     0.10300
H490        H  0.25005094  0.76172391  0.17454166     0.11400
H491        H  0.33829383  0.85887734  0.18595372     0.11500
H492        H  0.33276560  0.82214881  0.11580580     0.13400
H493        H  0.38576429  0.83861306  0.07388178     0.09900
H494        H  0.42033139  0.87760676  0.04441080     0.12000
H495        H  0.36801567  0.93727959  0.12001866     0.08600
H496        H  0.33348114  0.89841586  0.14904110     0.11400
C497        C  0.70654484  0.77322436  0.78270388    -0.03200
C498        C  0.68187815  0.79402885  0.76831351    -0.05800
C499        C  0.65936802  0.81052292  0.79166944    -0.20900
C500        C  0.66024942  0.80645201  0.83025193     0.24800
C501        C  0.68142820  0.78384040  0.84448167    -0.18500
C502        C  0.70396074  0.76716392  0.82102968    -0.08400
C503        C  0.63965997  0.82561296  0.85614536    -0.18700
C504        C  0.63400121  0.85330907  0.84834971    -0.23500
C505        C  0.61554463  0.87397880  0.87381451     0.26900
C506        C  0.62132223  0.90307507  0.86731992    -0.20300
C507        C  0.60362534  0.92354614  0.88933654    -0.09900
C508        C  0.57928732  0.91545792  0.91834171    -0.10500
C509        C  0.57360241  0.88627829  0.92509832    -0.03400
C510        C  0.59152843  0.86571706  0.90306423    -0.18500
H511        H  0.68151465  0.79847461  0.73881465     0.10600
H512        H  0.64168911  0.82667991  0.77940198     0.10600
H513        H  0.68133644  0.77953226  0.87401804     0.10300
H514        H  0.71934294  0.74986591  0.83341708     0.11400
H515        H  0.63186050  0.81725542  0.88314779     0.11500
H516        H  0.64527920  0.86185056  0.82261186     0.13400
H517        H  0.63951939  0.91005826  0.84490566     0.09900
H518        H  0.60859357  0.94577681  0.88310498     0.12000
H519        H  0.55490388  0.87929748  0.94708428     0.08600
H520        H  0.58566920  0.84352526  0.90848724     0.11400
C521        C  0.27137748  0.24045837  0.77436113    -0.03200
C522        C  0.29664859  0.22254257  0.75493221    -0.05800
C523        C  0.31915372  0.20293826  0.77354785    -0.20900
C524        C  0.31672198  0.20006658  0.81216328     0.24800
C525        C  0.29086971  0.21704620  0.83178367    -0.18500
C526        C  0.26831436  0.23671278  0.81318534    -0.08400
C527        C  0.33904154  0.17742234  0.83047244    -0.18700
C528        C  0.34702969  0.17722014  0.86699465    -0.23500
C529        C  0.36708493  0.15329927  0.88502205     0.26900
C530        C  0.38902888  0.15869490  0.91655969    -0.20300
C531        C  0.40781490  0.13651862  0.93445826    -0.09900
C532        C  0.40452541  0.10830073  0.92155028    -0.10500
C533        C  0.38189091  0.10287686  0.89033670    -0.03400
C534        C  0.36337713  0.12510592  0.87227427    -0.18500
H535        H  0.29879233  0.22372346  0.72496416     0.10600
H536        H  0.33817922  0.18965277  0.75759116     0.10600
H537        H  0.28667202  0.21439247  0.86132861     0.10300
H538        H  0.24743405  0.24783735  0.82947250     0.11400
H539        H  0.34975877  0.16041200  0.81292970     0.11500
H540        H  0.33982912  0.19544243  0.88416514     0.13400
H541        H  0.39190216  0.18017955  0.92719473     0.09900
H542        H  0.42473925  0.14151290  0.95858414     0.12000
H543        H  0.37842407  0.08142796  0.87980496     0.08600
H544        H  0.34561404  0.12005425  0.84878760     0.11400
C545        C  0.71781326  0.77458894  0.21951724    -0.03200
C546        C  0.71786891  0.77106485  0.18048255    -0.05800
C547        C  0.69303454  0.78649632  0.15799580    -0.20900
C548        C  0.66683617  0.80540479  0.17364529     0.24800
C549        C  0.66419518  0.80692614  0.21258229    -0.18500
C550        C  0.68908676  0.79171626  0.23500822    -0.08400
C551        C  0.64333708  0.82357588  0.14873595    -0.18700
C552        C  0.62968913  0.84906930  0.15965549    -0.23500
C553        C  0.61050902  0.87003778  0.13507318     0.26900
C554        C  0.61011527  0.89858186  0.14656666    -0.20300
C555        C  0.59258940  0.91947223  0.12529869    -0.09900
C556        C  0.57421442  0.91246033  0.09197054    -0.10500
C557        C  0.57429146  0.88377854  0.08031888    -0.03400
C558        C  0.59237585  0.86275166  0.10158138    -0.18500
H559        H  0.73678928  0.75643574  0.16682035     0.10600
H560        H  0.69484030  0.78405368  0.12812287     0.10600
H561        H  0.64305560  0.81992771  0.22602121     0.10300
H562        H  0.68670988  0.79398283  0.26486571     0.11400
H563        H  0.64040719  0.81705814  0.11995358     0.11500
H564        H  0.63564330  0.85635154  0.18764402     0.13400
H565        H  0.62367343  0.90487167  0.17223266     0.09900
H566        H  0.59302545  0.94119019  0.13542588     0.12000
H567        H  0.56035699  0.87758515  0.05483107     0.08600
H568        H  0.59149042  0.84090569  0.09206919     0.11400
C569        C  0.27818715  0.77145791  0.78363618    -0.03200
C570        C  0.31671352  0.76456000  0.78760586    -0.05800
C571        C  0.34019314  0.78093804  0.81047435    -0.20900
C572        C  0.32575939  0.80425273  0.83020160     0.24800
C573        C  0.28689766  0.80942336  0.82932483    -0.18500
C574        C  0.26352871  0.79316240  0.80670464    -0.08400
C575        C  0.35148317  0.82330636  0.85107582    -0.18700
C576        C  0.34479877  0.85145226  0.85337837    -0.23500
C577        C  0.36890226  0.87224723  0.87324773     0.26900
C578        C  0.36411477  0.90117736  0.86517548    -0.20300
C579        C  0.38400907  0.92192696  0.88466684    -0.09900
C580        C  0.40906591  0.91426624  0.91306144    -0.10500
C581        C  0.41454466  0.88522401  0.92071434    -0.03400
C582        C  0.39456200  0.86437583  0.90107807    -0.18500
H583        H  0.32910240  0.74660604  0.77341176     0.10600
H584        H  0.36988748  0.77585571  0.81197266     0.10600
H585        H  0.27446880  0.82625692  0.84585246     0.10300
H586        H  0.23378698  0.79820284  0.80609947     0.11400
H587        H  0.37718622  0.81437636  0.86227440     0.11500
H588        H  0.32073251  0.86010588  0.83868710     0.13400
H589        H  0.34450003  0.90782470  0.84391604     0.09900
H590        H  0.37920912  0.94404310  0.87777912     0.12000
H591        H  0.43361225  0.87859736  0.94243647     0.08600
H592        H  0.39848612  0.84232770  0.90861760     0.11400
C593        C  0.90717301  0.10447764  0.59035073    -0.03200
C594        C  0.91474033  0.13317772  0.58192411    -0.05800
C595        C  0.89452622  0.15511979  0.59930758    -0.20900
C596        C  0.86652201  0.14901280  0.62577099     0.24800
C597        C  0.85856443  0.12028214  0.63375369    -0.18500
C598        C  0.87871311  0.09838899  0.61641982    -0.08400
C599        C  0.84544726  0.17298125  0.64355510    -0.18700
C600        C  0.82761791  0.17053764  0.67656852    -0.23500
C601        C  0.80513186  0.19339039  0.69506226     0.26900
C602        C  0.78215491  0.18561853  0.72506889    -0.20300
C603        C  0.76032560  0.20573730  0.74380561    -0.09900
C604        C  0.76000872  0.23462312  0.73285357    -0.10500
C605        C  0.78511605  0.24260966  0.70413187    -0.03400
C606        C  0.80673837  0.22229714  0.68498333    -0.18500
H607        H  0.93622917  0.13874302  0.56180410     0.10600
H608        H  0.90098815  0.17698823  0.59223099     0.10600
H609        H  0.83629109  0.11441270  0.65278290     0.10300
H610        H  0.87172904  0.07659789  0.62337731     0.11400
H611        H  0.84517284  0.19313117  0.62897701     0.11500
H612        H  0.82906658  0.15042644  0.69118824     0.13400
H613        H  0.78118727  0.16371318  0.73436354     0.09900
H614        H  0.74461825  0.19834020  0.76763556     0.12000
H615        H  0.78773422  0.26475305  0.69626210     0.08600
H616        H  0.82514482  0.22955563  0.66300569     0.11400
C617        C  0.70750075  0.24358186  0.78060512    -0.03200
C618        C  0.70489184  0.24905275  0.81916299    -0.05800
C619        C  0.67931966  0.23404754  0.84149541    -0.20900
C620        C  0.65498584  0.21370557  0.82601317     0.24800
C621        C  0.65461470  0.21042295  0.78719096    -0.18500
C622        C  0.68019882  0.22527369  0.76493576    -0.08400
C623        C  0.63105454  0.19592836  0.85105886    -0.18700
C624        C  0.61924366  0.16963183  0.84140163    -0.23500
C625        C  0.59987903  0.14920711  0.86667985     0.26900
C626        C  0.60025327  0.12035411  0.85665957    -0.20300
C627        C  0.58396602  0.09981947  0.87950956    -0.09900
C628        C  0.56632121  0.10751722  0.91305333    -0.10500
C629        C  0.56475821  0.13654957  0.92273971    -0.03400
C630        C  0.58147393  0.15723772  0.89982655    -0.18500
H631        H  0.72232367  0.26486151  0.83252680     0.10600
H632        H  0.67916017  0.23791395  0.87116587     0.10600
H633        H  0.63479418  0.19629162  0.77374455     0.10300
H634        H  0.67968846  0.22166390  0.73521849     0.11400
H635        H  0.62631114  0.20359508  0.87912266     0.11500
H636        H  0.62701381  0.16137675  0.81428557     0.13400
H637        H  0.61381798  0.11351448  0.83117140     0.09900
H638        H  0.58527601  0.07777977  0.87073152     0.12000
H639        H  0.55101797  0.14324138  0.94818164     0.08600
H640        H  0.57969899  0.17933409  0.90809169     0.11400
C641        C  0.06898828  0.41350521  0.09594224    -0.03200
C642        C  0.09263248  0.42272318  0.12495769    -0.05800
C643        C  0.10918660  0.40330520  0.14898506    -0.20900
C644        C  0.10317427  0.37407430  0.14452592     0.24800
C645        C  0.07931937  0.36455454  0.11584199    -0.18500
C646        C  0.06233007  0.38414489  0.09176349    -0.08400
C647        C  0.12256078  0.35457740  0.17050754    -0.18700
C648        C  0.13343130  0.32808662  0.16125998    -0.23500
C649        C  0.15800233  0.31051791  0.18542567     0.26900
C650        C  0.18089553  0.28980060  0.16889944    -0.20300
C651        C  0.20537501  0.27339572  0.19027171    -0.09900
C652        C  0.20656944  0.27635912  0.22935851    -0.10500
C653        C  0.18417722  0.29795513  0.24551058    -0.03400
C654        C  0.15985754  0.31440794  0.22409018    -0.18500
H655        H  0.09844381  0.44510910  0.12936314     0.10600
H656        H  0.12730685  0.41119638  0.17089602     0.10600
H657        H  0.07338617  0.34212334  0.11223182     0.10300
H658        H  0.04400320  0.37633193  0.07001517     0.11400
H659        H  0.13174838  0.36366828  0.19669431     0.11500
H660        H  0.12725951  0.32002036  0.13365202     0.13400
H661        H  0.18051302  0.28672792  0.13907103     0.09900
H662        H  0.22349682  0.25884012  0.17549561     0.12000
H663        H  0.18477894  0.30149517  0.27523830     0.08600
H664        H  0.14224797  0.32980841  0.23814600     0.11400
C665        C  0.21384343  0.73876616  0.23036124    -0.03200
C666        C  0.18679475  0.75202477  0.20744038    -0.05800
C667        C  0.16171975  0.73593606  0.18589744    -0.20900
C668        C  0.16253662  0.70614163  0.18701198     0.24800
C669        C  0.18720749  0.69283093  0.21188343    -0.18500
C670        C  0.21208480  0.70878635  0.23339160    -0.08400
C671        C  0.13696517  0.68916248  0.16287175    -0.18700
C672        C  0.14710085  0.66328721  0.15016326    -0.23500
C673        C  0.12300509  0.64366068  0.12814535     0.26900
C674        C  0.13435563  0.61516521  0.12588078    -0.20300
C675        C  0.11368294  0.59542724  0.10549037    -0.09900
C676        C  0.08105501  0.60362448  0.08633680    -0.10500
C677        C  0.06953944  0.63224037  0.08827695    -0.03400
C678        C  0.09026001  0.65212723  0.10913791    -0.18500
H679        H  0.18566034  0.77501040  0.20568952     0.10600
H680        H  0.14211655  0.74677879  0.16784007     0.10600
H681        H  0.18688805  0.66996749  0.21545049     0.10300
H682        H  0.22914326  0.69716669  0.25290029     0.11400
H683        H  0.10999863  0.69826800  0.15544224     0.11500
H684        H  0.17494333  0.65540963  0.15704888     0.13400
H685        H  0.15942195  0.60801311  0.14015407     0.09900
H686        H  0.12357732  0.57364642  0.10458466     0.12000
H687        H  0.04444061  0.63918912  0.07393276     0.08600
H688        H  0.08082872  0.67398115  0.10978065     0.11400
C689        C  0.90463316  0.60796398  0.07892313    -0.03200
C690        C  0.86652314  0.60401662  0.08782876    -0.05800
C691        C  0.84701113  0.62454005  0.10820454    -0.20900
C692        C  0.86511650  0.64940346  0.12055340     0.24800
C693        C  0.90304930  0.65390430  0.11054213    -0.18500
C694        C  0.92251919  0.63341433  0.08960652    -0.08400
C695        C  0.84373228  0.66859583  0.14584180    -0.18700
C696        C  0.85435065  0.69495415  0.15645750    -0.23500
C697        C  0.83060890  0.71187062  0.18242289     0.26900
C698        C  0.82683986  0.74132515  0.17775176    -0.20300
C699        C  0.80088506  0.75669843  0.19927191    -0.09900
C700        C  0.77735152  0.74284875  0.22536313    -0.10500
C701        C  0.78524545  0.71394365  0.23300149    -0.03400
C702        C  0.81097752  0.69866896  0.21153711    -0.18500
H703        H  0.85190436  0.58478701  0.07948911     0.10600
H704        H  0.81778278  0.62056661  0.11521985     0.10600
H705        H  0.91821073  0.67257983  0.11977453     0.10300
H706        H  0.95197991  0.63690291  0.08315438     0.11400
H707        H  0.81698020  0.66046808  0.15607899     0.11500
H708        H  0.87908301  0.70495677  0.14447795     0.13400
H709        H  0.84280906  0.75223766  0.15641809     0.09900
H710        H  0.79773246  0.77927160  0.19421776     0.12000
H711        H  0.77164551  0.70266776  0.25544866     0.08600
H712        H  0.81528955  0.67635449  0.21762034     0.11400
C713        C  0.08554809  0.60213462  0.91577626    -0.03200
C714        C  0.11448980  0.59381326  0.89136600    -0.05800
C715        C  0.13697954  0.61410193  0.87383676    -0.20900
C716        C  0.13099447  0.64324172  0.87981423     0.24800
C717        C  0.10187792  0.65177171  0.90396754    -0.18500
C718        C  0.07936685  0.63138155  0.92175718    -0.08400
C719        C  0.15679483  0.66362648  0.86117993    -0.18700
C720        C  0.14881557  0.69117698  0.85456976    -0.23500
C721        C  0.17490099  0.70966611  0.83301693     0.26900
C722        C  0.16043026  0.73175619  0.81121952    -0.20300
C723        C  0.18406980  0.74748876  0.78769963    -0.09900
C724        C  0.22281667  0.74099248  0.78479670    -0.10500
C725        C  0.23745576  0.72076248  0.80988986    -0.03400
C726        C  0.21396103  0.70524852  0.83336110    -0.18500
H727        H  0.12016973  0.57153861  0.88601589     0.10600
H728        H  0.15926832  0.60694141  0.85546547     0.10600
H729        H  0.09691666  0.67402891  0.90988463     0.10300
H730        H  0.05740820  0.63854198  0.94048097     0.11400
H731        H  0.18278370  0.65480835  0.85017580     0.11500
H732        H  0.12146630  0.69969719  0.86213376     0.13400
H733        H  0.13056769  0.73639588  0.81167860     0.09900
H734        H  0.17154758  0.76457852  0.77210823     0.12000
H735        H  0.26732625  0.71615549  0.81018757     0.08600
H736        H  0.22653686  0.68959153  0.85145401     0.11400
C737        C  0.76068419  0.73628938  0.77443973    -0.03200
C738        C  0.76493129  0.70820968  0.76074310    -0.05800
C739        C  0.78882270  0.68880371  0.77792094    -0.20900
C740        C  0.81007929  0.69656608  0.80901465     0.24800
C741        C  0.80824564  0.72494797  0.82153879    -0.18500
C742        C  0.78450868  0.74460228  0.80396372    -0.08400
C743        C  0.83391764  0.67420713  0.82649766    -0.18700
C744        C  0.84886010  0.67581872  0.86081634    -0.23500
C745        C  0.86979944  0.65178814  0.87813947     0.26900
C746        C  0.89660395  0.65769077  0.90566321    -0.20300
C747        C  0.91585108  0.63561470  0.92343339    -0.09900
C748        C  0.90840447  0.60695913  0.91443818    -0.10500
C749        C  0.88136882  0.60105473  0.88698833    -0.03400
C750        C  0.86226499  0.62314340  0.86911675    -0.18500
H751        H  0.75052851  0.70087356  0.73614248     0.10600
H752        H  0.79055375  0.66740123  0.76676847     0.10600
H753        H  0.82534689  0.73227668  0.84443487     0.10300
H754        H  0.78415292  0.76636692  0.81392668     0.11400
H755        H  0.83825245  0.65490948  0.81042535     0.11500
H756        H  0.84578906  0.69513849  0.87706088     0.13400
H757        H  0.90272859  0.67950188  0.91342097     0.09900
H758        H  0.93635683  0.64106234  0.94449291     0.12000
H759        H  0.87461769  0.57930501  0.87949591     0.08600
H760        H  0.84091134  0.61758195  0.84899917     0.11400
C761        C  0.06786520  0.40998801  0.90786146    -0.03200
C762        C  0.07082605  0.41406331  0.86931273    -0.05800
C763        C  0.08754513  0.39340433  0.84671516    -0.20900
C764        C  0.10283517  0.36873039  0.86232524     0.24800
C765        C  0.09934946  0.36430381  0.90082052    -0.18500
C766        C  0.08156377  0.38464967  0.92336386    -0.08400
C767        C  0.12246838  0.34813604  0.83779576    -0.18700
C768        C  0.15502944  0.33568269  0.84764746    -0.23500
C769        C  0.17689901  0.31686949  0.82235917     0.26900
C770        C  0.21615964  0.31576224  0.82580838    -0.20300
C771        C  0.23755430  0.29799770  0.80280940    -0.09900
C772        C  0.22020508  0.27958346  0.77693112    -0.10500
C773        C  0.18067417  0.28168777  0.77279612    -0.03400
C774        C  0.15939006  0.29982143  0.79537651    -0.18500
H775        H  0.06011247  0.43328613  0.85663735     0.10600
H776        H  0.08959619  0.39710214  0.81709155     0.10600
H777        H  0.11028413  0.34512883  0.91340299     0.10300
H778        H  0.07950052  0.38099444  0.95298397     0.11400
H779        H  0.11185928  0.34544068  0.80975071     0.11500
H780        H  0.16744065  0.34102264  0.87432986     0.13400
H781        H  0.23040566  0.32897602  0.84609044     0.09900
H782        H  0.26789690  0.29810407  0.80574263     0.12000
H783        H  0.16574745  0.26983541  0.75171407     0.08600
H784        H  0.12913665  0.30013522  0.79190896     0.11400
C785        C  0.89881192  0.41500554  0.08481764    -0.03200
C786        C  0.86541444  0.42312115  0.10303187    -0.05800
C787        C  0.84329809  0.40303063  0.12146533    -0.20900
C788        C  0.85422282  0.37441546  0.12276259     0.24800
C789        C  0.88748230  0.36609148  0.10431371    -0.18500
C790        C  0.90951167  0.38621326  0.08545588    -0.08400
C791        C  0.82979925  0.35403731  0.14322101    -0.18700
C792        C  0.84286179  0.33014985  0.15916594    -0.23500
C793        C  0.81921313  0.31091083  0.18234520     0.26900
C794        C  0.83710419  0.29334650  0.20818000    -0.20300
C795        C  0.81631874  0.27501941  0.23083850    -0.09900
C796        C  0.77673332  0.27290549  0.22756383    -0.10500
C797        C  0.75889235  0.29124482  0.20209812    -0.03400
C798        C  0.77975202  0.30963190  0.17945069    -0.18500
H799        H  0.85606537  0.44504446  0.10279148     0.10600
H800        H  0.81769375  0.40996243  0.13516416     0.10600
H801        H  0.89627637  0.34406477  0.10387082     0.10300
H802        H  0.93496716  0.37925372  0.07153744     0.11400
H803        H  0.80073829  0.36026220  0.14770420     0.11500
H804        H  0.87273157  0.32543456  0.15746599     0.13400
H805        H  0.86740462  0.29422845  0.21145030     0.09900
H806        H  0.83170116  0.26321508  0.25149992     0.12000
H807        H  0.72851955  0.29104224  0.19948553     0.08600
H808        H  0.76476688  0.32249044  0.15953266     0.11400
C809        C  0.76745125  0.27519413  0.77556559    -0.03200
C810        C  0.78856942  0.26262288  0.80437343    -0.05800
C811        C  0.81404321  0.27873190  0.82545553    -0.20900
C812        C  0.82032717  0.30753862  0.81738305     0.24800
C813        C  0.80313757  0.31913912  0.78577927    -0.18500
C814        C  0.77740130  0.30322715  0.76509622    -0.08400
C815        C  0.84492198  0.32504202  0.84204539    -0.18700
C816        C  0.83965916  0.35331314  0.84620814    -0.23500
C817        C  0.86245736  0.37282142  0.87001566     0.26900
C818        C  0.85227749  0.40165295  0.87051090    -0.20300
C819        C  0.87284070  0.42150982  0.89093307    -0.09900
C820        C  0.90427205  0.41318817  0.91186613    -0.10500
C821        C  0.91431252  0.38421453  0.91210239    -0.03400
C822        C  0.89371588  0.36419662  0.89127350    -0.18500
H823        H  0.78397531  0.24054766  0.81168751     0.10600
H824        H  0.82808851  0.26885786  0.84874426     0.10600
H825        H  0.80954483  0.34056715  0.77677769     0.10300
H826        H  0.76564907  0.31318374  0.74073634     0.11400
H827        H  0.86615192  0.31410834  0.85813225     0.11500
H828        H  0.81646755  0.36309764  0.83142004     0.13400
H829        H  0.82832328  0.40902497  0.85467152     0.09900
H830        H  0.86388547  0.44352195  0.89031804     0.12000
H831        H  0.93835475  0.37707912  0.92795973     0.08600
H832        H  0.90266532  0.34224617  0.89182604     0.11400
C833        C  0.58252621  0.60253655  0.58679920    -0.03200
C834        C  0.60840391  0.59461468  0.61434695    -0.05800
C835        C  0.62549644  0.61508538  0.63681413    -0.20900
C836        C  0.61768515  0.64409402  0.63220639     0.24800
C837        C  0.59209839  0.65230394  0.60446747    -0.18500
C838        C  0.57465555  0.63169301  0.58200353    -0.08400
C839        C  0.63563912  0.66458495  0.65824982    -0.18700
C840        C  0.64187935  0.69234183  0.65098878    -0.23500
C841        C  0.66232698  0.71108058  0.67764589     0.26900
C842        C  0.68416901  0.73385105  0.66444802    -0.20300
C843        C  0.70648049  0.74998824  0.68879092    -0.09900
C844        C  0.70797528  0.74334292  0.72703772    -0.10500
C845        C  0.68295033  0.72225420  0.74029529    -0.03400
C846        C  0.66073071  0.70630677  0.71609030    -0.18500
H847        H  0.61521852  0.57246057  0.61899963     0.10600
H848        H  0.64495527  0.60815804  0.65805563     0.10600
H849        H  0.58477578  0.67444419  0.60067956     0.10300
H850        H  0.55467481  0.63858026  0.56124104     0.11400
H851        H  0.64645689  0.65570568  0.68389136     0.11500
H852        H  0.63463545  0.70093166  0.62399172     0.13400
H853        H  0.68473551  0.73871508  0.63506432     0.09900
H854        H  0.72241433  0.76743503  0.67721667     0.12000
H855        H  0.68176345  0.71736627  0.76965706     0.08600
H856        H  0.64257052  0.69005486  0.72765730     0.11400
C857        C  0.26748658  0.28135230  0.72705854    -0.03200
C858        C  0.24755034  0.29992812  0.70349662    -0.05800
C859        C  0.26628863  0.32012235  0.68182749    -0.20900
C860        C  0.30560955  0.32241459  0.68273085     0.24800
C861        C  0.32582235  0.30470796  0.70682491    -0.18500
C862        C  0.30704721  0.28484842  0.72910673    -0.08400
C863        C  0.32420740  0.34474162  0.65996453    -0.18700
C864        C  0.36006591  0.34310568  0.64771471    -0.23500
C865        C  0.37811943  0.36595149  0.62522338     0.26900
C866        C  0.40813910  0.35915546  0.60132071    -0.20300
C867        C  0.42589452  0.38033623  0.58016526    -0.09900
C868        C  0.41429272  0.40889518  0.58287571    -0.10500
C869        C  0.38449781  0.41564043  0.60718347    -0.03400
C870        C  0.36673417  0.39451856  0.62812623    -0.18500
H871        H  0.21714082  0.29875617  0.70192814     0.10600
H872        H  0.24993299  0.33398486  0.66413740     0.10600
H873        H  0.35603087  0.30684140  0.70959057     0.10300
H874        H  0.32393259  0.27303283  0.74856035     0.11400
H875        H  0.30689123  0.36259970  0.65158643     0.11500
H876        H  0.37627375  0.32396213  0.65290627     0.13400
H877        H  0.41776451  0.33736610  0.59887933     0.09900
H878        H  0.44897145  0.37437743  0.56204439     0.12000
H879        H  0.37495259  0.43738792  0.61033616     0.08600
H880        H  0.34464742  0.40084255  0.64715930     0.11400
C881        C  0.58435423  0.41270449  0.40583720    -0.03200
C882        C  0.59354254  0.41847417  0.36859914    -0.05800
C883        C  0.61256298  0.39839507  0.34693559    -0.20900
C884        C  0.62394528  0.37243559  0.36223090     0.24800
C885        C  0.61540252  0.36665620  0.39966898    -0.18500
C886        C  0.59531016  0.38651271  0.42118710    -0.08400
C887        C  0.64280096  0.35130835  0.33778993    -0.18700
C888        C  0.67228463  0.33553695  0.34878010    -0.23500
C889        C  0.69185215  0.31536153  0.32339947     0.26900
C890        C  0.73095955  0.31214374  0.32585647    -0.20300
C891        C  0.74991178  0.29286909  0.30281035    -0.09900
C892        C  0.73012337  0.27504283  0.27791566    -0.10500
C893        C  0.69083129  0.27932577  0.27466619    -0.03400
C894        C  0.67201671  0.29898803  0.29727333    -0.18500
H895        H  0.58538001  0.43842009  0.35596466     0.10600
H896        H  0.61866382  0.40323652  0.31813610     0.10600
H897        H  0.62342948  0.34656578  0.41196299     0.10300
H898        H  0.58876701  0.38158472  0.44985820     0.11400
H899        H  0.63385120  0.35027796  0.30898761     0.11500
H900        H  0.68384643  0.33880280  0.37637313     0.13400
H901        H  0.74697417  0.32483119  0.34540518     0.09900
H902        H  0.78023760  0.29127788  0.30504812     0.12000
H903        H  0.67424210  0.26797260  0.25434426     0.08600
H904        H  0.64179047  0.30106728  0.29460486     0.11400
C905        C  0.41139071  0.60571480  0.41565240    -0.03200
C906        C  0.41446175  0.63381097  0.42893792    -0.05800
C907        C  0.39502257  0.65598973  0.41170955    -0.20900
C908        C  0.37253262  0.65079020  0.38045005     0.24800
C909        C  0.36912790  0.62268192  0.36723788    -0.18500
C910        C  0.38832001  0.60042169  0.38466191    -0.08400
C911        C  0.35165702  0.67490880  0.36352144    -0.18700
C912        C  0.34143076  0.67551153  0.32750772    -0.23500
C913        C  0.31885669  0.69876956  0.31046470     0.26900
C914        C  0.31840862  0.70120001  0.27169768    -0.20300
C915        C  0.29481327  0.72079422  0.25429662    -0.09900
C916        C  0.26994138  0.73818558  0.27501370    -0.10500
C917        C  0.27285132  0.73721207  0.31412175    -0.03400
C918        C  0.29628420  0.71739872  0.33153542    -0.18500
H919        H  0.43163716  0.63869430  0.45292909     0.10600
H920        H  0.39773236  0.67736349  0.42274977     0.10600
H921        H  0.35105762  0.61767719  0.34397264     0.10300
H922        H  0.38498770  0.57903917  0.37384915     0.11400
H923        H  0.34591691  0.69311531  0.38120555     0.11500
H924        H  0.35044784  0.65836151  0.30929019     0.13400
H925        H  0.33581538  0.68742937  0.25467585     0.09900
H926        H  0.29457252  0.72146048  0.22423491     0.12000
H927        H  0.25695836  0.75134124  0.33181932     0.08600
H928        H  0.29567587  0.71635619  0.36150787     0.11400
C929        C  0.58429482  0.60562805  0.41430403    -0.03200
C930        C  0.57820362  0.63402169  0.42528574    -0.05800
C931        C  0.59811988  0.65628666  0.40855861    -0.20900
C932        C  0.62425467  0.65082383  0.38016891     0.24800
C933        C  0.63088838  0.62240111  0.36953438    -0.18500
C934        C  0.61105631  0.60009806  0.38632887    -0.08400
C935        C  0.64452497  0.67516116  0.36275304    -0.18700
C936        C  0.65741249  0.67431963  0.32754766    -0.23500
C937        C  0.67740383  0.69811807  0.30857111     0.26900
C938        C  0.68057958  0.69700891  0.26983802    -0.20300
C939        C  0.70128887  0.71745617  0.25059459    -0.09900
C940        C  0.72082438  0.73934621  0.26944623    -0.10500
C941        C  0.71522800  0.74159132  0.30823555    -0.03400
C942        C  0.69436815  0.72098740  0.32759918    -0.18500
H943        H  0.55809548  0.63912141  0.44695371     0.10600
H944        H  0.59276626  0.67792327  0.41756095     0.10600
H945        H  0.65179283  0.61721199  0.34869313     0.10300
H946        H  0.61690731  0.57850187  0.37749547     0.11400
H947        H  0.64677856  0.69467054  0.37875491     0.11500
H948        H  0.65189444  0.65545412  0.31094825     0.13400
H949        H  0.66738244  0.67994042  0.25429168     0.09900
H950        H  0.70353418  0.71548041  0.22069449     0.12000
H951        H  0.72679573  0.75904586  0.32407108     0.08600
H952        H  0.69240483  0.72285219  0.35746343     0.11400
C953        C  0.71309248  0.27722118  0.72928542    -0.03200
C954        C  0.69333549  0.29995003  0.74612922    -0.05800
C955        C  0.67385583  0.31983744  0.72494689    -0.20900
C956        C  0.67240517  0.31735700  0.68622907     0.24800
C957        C  0.68943821  0.29360252  0.66926280    -0.18500
C958        C  0.70893443  0.27353800  0.69056692    -0.08400
C959        C  0.65468878  0.34084072  0.66487318    -0.18700
C960        C  0.64321221  0.33870089  0.62936909    -0.23500
C961        C  0.62556680  0.36289231  0.60948806     0.26900
C962        C  0.59787419  0.35729076  0.58279842    -0.20300
C963        C  0.57933512  0.37961407  0.56498300    -0.09900
C964        C  0.58844296  0.40813047  0.57314065    -0.10500
C965        C  0.61750680  0.41368387  0.59863847    -0.03400
C966        C  0.63589092  0.39131845  0.61659924    -0.18500
H967        H  0.69448135  0.30301880  0.77592651     0.10600
H968        H  0.66048932  0.33761777  0.73891061     0.10600
H969        H  0.68877926  0.29071476  0.63948519     0.10300
H970        H  0.72076168  0.25541528  0.67627033     0.11400
H971        H  0.64995809  0.36071864  0.67963278     0.11500
H972        H  0.64433667  0.31834756  0.61514072     0.13400
H973        H  0.58983766  0.33556940  0.57643433     0.09900
H974        H  0.55744350  0.37445987  0.54519525     0.12000
H975        H  0.62580313  0.43532418  0.60509244     0.08600
H976        H  0.65818526  0.39633406  0.63598817     0.11400
C977        C  0.41840808  0.60336741  0.59043494    -0.03200
C978        C  0.42776556  0.63214083  0.58439010    -0.05800
C979        C  0.40996563  0.65384504  0.60455036    -0.20900
C980        C  0.38213636  0.64747000  0.63103252     0.24800
C981        C  0.37354859  0.61865667  0.63791027    -0.18500
C982        C  0.39137527  0.59694053  0.61779967    -0.08400
C983        C  0.36335643  0.67132426  0.65137085    -0.18700
C984        C  0.32888825  0.66896728  0.66695685    -0.23500
C985        C  0.30919470  0.69193924  0.68813345     0.26900
C986        C  0.27760740  0.68429318  0.70925266    -0.20300
C987        C  0.25813800  0.70444273  0.73030640    -0.09900
C988        C  0.27026424  0.73311895  0.73212639    -0.10500
C989        C  0.30018210  0.74113889  0.70836803    -0.03400
C990        C  0.31981379  0.72083358  0.68718373    -0.18500
H991        H  0.44873648  0.63798792  0.56387849     0.10600
H992        H  0.41759126  0.67576768  0.59901999     0.10600
H993        H  0.35345755  0.61263762  0.65910625     0.10300
H994        H  0.38381417  0.57506954  0.62366797     0.11400
H995        H  0.37830460  0.69143594  0.65268333     0.11500
H996        H  0.31400226  0.64886685  0.66459334     0.13400
H997        H  0.26782324  0.66243464  0.70958470     0.09900
H998        H  0.23332599  0.69710286  0.74483149     0.12000
H999        H  0.30915825  0.76315743  0.70716391     0.08600
H1000       H  0.34294066  0.72802665  0.67003016     0.11400
C1001       C  0.40863499  0.41189693  0.40971664    -0.03200
C1002       C  0.41142186  0.38323015  0.42045832    -0.05800
C1003       C  0.38943975  0.36229323  0.40323835    -0.20900
C1004       C  0.36469832  0.36930059  0.37436870     0.24800
C1005       C  0.36242332  0.39784990  0.36292530    -0.18500
C1006       C  0.38411459  0.41889009  0.38043562    -0.08400
C1007       C  0.34041295  0.34654083  0.35830892    -0.18700
C1008       C  0.32762018  0.34677800  0.32308833    -0.23500
C1009       C  0.30391557  0.32359060  0.30706545     0.26900
C1010       C  0.30411374  0.31916019  0.26856264    -0.20300
C1011       C  0.28169527  0.29795261  0.25249033    -0.09900
C1012       C  0.25842497  0.28016768  0.27438946    -0.10500
C1013       C  0.25743717  0.28556917  0.31306511    -0.03400
C1014       C  0.27997992  0.30674227  0.32909487    -0.18500
H1015       H  0.42994507  0.37699923  0.44282540     0.10600
H1016       H  0.39164691  0.34048485  0.41265351     0.10600
H1017       H  0.34309737  0.40415335  0.34129007     0.10300
H1018       H  0.38122583  0.44072632  0.37134733     0.11400
H1019       H  0.33465258  0.32819627  0.37569923     0.11500
H1020       H  0.33642922  0.36378529  0.30462229     0.13400
H1021       H  0.32171922  0.33217858  0.25077558     0.09900
H1022       H  0.28240408  0.29535700  0.22259980     0.12000
H1023       H  0.23846634  0.27430791  0.33133112     0.08600
H1024       H  0.27761955  0.31041909  0.35868037     0.11400
loop_ 
_geom_bond_atom_site_label_1 
_geom_bond_atom_site_label_2 
_geom_bond_distance 
_geom_bond_site_symmetry_2 
_ccdc_geom_bond_type 
O1          Zr13   2.444       .  S
O1            C3   1.289       .  A
O2          Zr39   2.436       .  S
O2            C3   1.289       .  A
C3          C868   1.489       .  S
O4          Zr16   2.447       .  S
O4            C6   1.290       .  A
O5          Zr40   2.427       .  S
O5            C6   1.288       .  A
C6          C905   1.488       .  S
O7          Zr16   2.445       .  S
O7            C9   1.289       .  A
O8          Zr39   2.436       .  S
O8            C9   1.290       .  A
C9         C1001   1.490       .  S
O10         Zr13   2.460       .  S
O10          C12   1.292       .  A
O11         Zr40   2.421       .  S
O11          C12   1.286       .  A
C12         C977   1.491       .  S
Zr13         O14   2.436       .  S
Zr13         O15   2.436       .  S
Zr13         O19   2.378       .  S
Zr13         O20   2.371       .  S
Zr13         O43   2.369       .  S
Zr13         O45   2.378       .  S
O14          H57   0.990       .  S
O15          H56   0.990       .  S
O15          H60   0.990       .  S
Zr16         O17   2.436       .  S
Zr16         O18   2.434       .  S
Zr16         O20   2.375       .  S
Zr16         O19   2.377       .  S
Zr16         O44   2.370       .  S
Zr16         O46   2.372       .  S
O17          H58   0.990       .  S
O17          H61   0.990       .  S
O18          H51   0.990       .  S
O19         Zr39   2.388       .  S
O20         Zr40   2.385       .  S
O20          H47   0.966       .  S
O21         Zr33   2.450       .  S
O21          C23   1.291       .  A
O22         Zr40   2.423       .  S
O22          C23   1.286       .  A
C23         C833   1.488       .  S
O24         Zr36   2.438       .  S
O24          C26   1.288       .  A
O25         Zr39   2.446       .  S
O25          C26   1.290       .  A
C26         C881   1.484       .  S
O27         Zr36   2.443       .  S
O27          C29   1.289       .  A
O28         Zr40   2.423       .  S
O28          C29   1.287       .  A
C29         C929   1.486       .  S
O30         Zr33   2.450       .  S
O30          C32   1.290       .  A
O31         Zr39   2.419       .  S
O31          C32   1.286       .  A
C32         C964   1.487       .  S
Zr33         O34   2.435       .  S
Zr33         O35   2.434       .  S
Zr33         O41   2.371       .  S
Zr33         O42   2.372       .  S
Zr33         O45   2.373       .  S
Zr33         O43   2.371       .  S
O34          H54   0.990       .  S
O34          H59   0.990       .  S
O35          H55   0.990       .  S
Zr36         O37   2.434       .  S
Zr36         O38   2.436       .  S
Zr36         O42   2.372       .  S
Zr36         O41   2.371       .  S
Zr36         O46   2.371       .  S
Zr36         O44   2.370       .  S
O37          H53   0.990       .  S
O38          H52   0.990       .  S
O38          H62   0.990       .  S
Zr39         O42   2.382       .  S
Zr39         O44   2.382       .  S
Zr39         O45   2.392       .  S
Zr40         O41   2.385       .  S
Zr40         O43   2.381       .  S
Zr40         O46   2.379       .  S
O41          H49   0.966       .  S
O44          H48   0.966       .  S
O45          H50   0.966       .  S
O63         Zr75   2.440       .  S
O63          C65   1.289       .  A
O64        Zr101   2.440   1_556  S
O64          C65   1.290       .  A
C65         C820   1.489       .  S
O66         Zr78   2.438       .  S
O66          C68   1.289       .  A
O67        Zr102   2.425   1_455  S
O67          C68   1.287       .  A
C68         C713   1.484       .  S
O69         Zr78   2.441       .  S
O69          C71   1.288       .  A
O70        Zr101   2.437   1_456  S
O70          C71   1.289       .  A
C71         C761   1.479       .  S
O72         Zr75   2.454       .  S
O72          C74   1.292       .  A
O73        Zr102   2.424       .  S
O73          C74   1.287       .  A
C74         C748   1.490       .  S
Zr75         O76   2.434       .  S
Zr75         O77   2.437       .  S
Zr75         O81   2.372       .  S
Zr75         O82   2.371       .  S
Zr75        O105   2.366       .  S
Zr75        O107   2.372       .  S
O76         H119   0.990       .  S
O77         H118   0.990       .  S
O77         H122   0.990       .  S
Zr78         O79   2.436       .  S
Zr78         O80   2.435       .  S
Zr78         O82   2.374   1_455  S
Zr78         O81   2.367   1_455  S
Zr78        O106   2.371   1_556  S
Zr78        O108   2.370       .  S
O79         H120   0.990       .  S
O79         H123   0.990       .  S
O80         H113   0.990       .  S
O81        Zr101   2.386   1_556  S
O82        Zr102   2.390       .  S
O82         H109   0.966       .  S
O83         Zr95   2.449       .  S
O83          C85   1.290       .  A
O84        Zr102   2.422   1_554  S
O84          C85   1.286       .  A
C85         C689   1.478       .  S
O86         Zr98   2.418       .  S
O86          C88   1.285       .  A
O87        Zr101   2.450   1_455  S
O87          C88   1.291       .  A
C88         C641   1.487       .  S
O89         Zr98   2.429       .  S
O89          C91   1.287       .  A
O90        Zr102   2.438   1_454  S
O90          C91   1.289       .  A
C91         C676   1.484       .  S
O92         Zr95   2.437       .  S
O92          C94   1.288       .  A
O93        Zr101   2.431       .  S
O93          C94   1.288       .  A
C94         C785   1.483       .  S
Zr95         O96   2.437       .  S
Zr95         O97   2.434       .  S
Zr95        O103   2.369       .  S
Zr95        O104   2.372       .  S
Zr95        O107   2.370   1_554  S
Zr95        O105   2.367   1_554  S
O96         H116   0.990       .  S
O96         H121   0.990       .  S
O97         H117   0.990       .  S
Zr98         O99   2.435       .  S
Zr98        O100   2.435       .  S
Zr98        O104   2.369   1_455  S
Zr98        O103   2.368   1_455  S
Zr98        O108   2.362   1_554  S
Zr98        O106   2.373       .  S
O99         H115   0.990       .  S
O100        H114   0.990       .  S
O100        H124   0.990       .  S
Zr101       O104   2.384       .  S
Zr101       O106   2.387   1_655  S
Zr101       O107   2.392   1_554  S
Zr102       O103   2.384   1_556  S
Zr102       O105   2.383       .  S
Zr102       O108   2.378   1_655  S
O103        H111   0.966       .  S
O106        H110   0.967       .  S
O107        H112   0.965       .  S
C125        C604   1.557       .  S
C125        C617   1.556       .  S
C125        C809   1.555       .  S
C125        C953   1.554       .  S
O126       Zr138   2.437       .  S
O126        C128   1.288       .  A
O127       Zr164   2.435   1_556  S
O127        C128   1.288       .  A
C128        C628   1.488       .  S
O129       Zr141   2.435   1_565  S
O129        C131   1.288       .  A
O130       Zr165   2.422   1_556  S
O130        C131   1.287       .  A
C131        C580   1.481       .  S
O132       Zr141   2.455       .  S
O132        C134   1.291       .  A
O133       Zr164   2.418   1_556  S
O133        C134   1.286       .  A
C134        C532   1.486       .  S
O135       Zr138   2.436   1_565  S
O135        C137   1.288       .  A
O136       Zr165   2.427   1_556  S
O136        C137   1.287       .  A
C137        C508   1.484       .  S
Zr138       O139   2.434       .  S
Zr138       O140   2.434       .  S
Zr138       O144   2.369       .  S
Zr138       O145   2.363   1_545  S
Zr138       O168   2.373   1_546  S
Zr138       O170   2.364   1_556  S
O139        H182   0.990       .  S
O140        H181   0.990       .  S
O140        H185   0.990   1_545  S
Zr141       O142   2.436       .  S
Zr141       O143   2.435       .  S
Zr141       O145   2.373   1_545  S
Zr141       O144   2.366       .  S
Zr141       O169   2.369   1_556  S
Zr141       O171   2.375   1_546  S
O142        H183   0.990       .  S
O142        H186   0.990   1_545  S
O143        H176   0.990       .  S
O144       Zr164   2.377   1_556  S
O145       Zr165   2.385   1_556  S
O145        H172   0.966       .  S
O146       Zr158   2.448   1_565  S
O146        C148   1.291       .  A
O147       Zr165   2.440       .  S
O147        C148   1.289       .  A
C148        C556   1.493       .  S
O149       Zr161   2.447       .  S
O149        C151   1.290       .  A
O150       Zr164   2.421       .  S
O150        C151   1.287       .  A
C151        C449   1.485       .  S
O152       Zr161   2.451   1_565  S
O152        C154   1.291       .  A
O153       Zr165   2.425       .  S
O153        C154   1.287       .  A
C154        C484   1.488       .  S
O155       Zr158   2.440       .  S
O155        C157   1.288       .  A
O156       Zr164   2.419       .  S
O156        C157   1.286       .  A
C157        C425   1.480       .  S
Zr158       O159   2.435       .  S
Zr158       O160   2.433       .  S
Zr158       O166   2.371   1_545  S
Zr158       O167   2.371       .  S
Zr158       O170   2.378       .  S
Zr158       O168   2.373   1_545  S
O159        H179   0.990       .  S
O159        H184   0.990       .  S
O160        H180   0.990   1_545  S
Zr161       O162   2.434       .  S
Zr161       O163   2.437       .  S
Zr161       O167   2.374       .  S
Zr161       O166   2.374   1_545  S
Zr161       O171   2.372   1_545  S
Zr161       O169   2.373       .  S
O162        H178   0.990       .  S
O163        H177   0.990       .  S
O163        H187   0.990   1_545  S
Zr164       O167   2.385       .  S
Zr164       O169   2.387       .  S
Zr164       O170   2.386       .  S
Zr165       O166   2.386       .  S
Zr165       O168   2.381       .  S
Zr165       O171   2.389       .  S
O166        H174   0.966       .  S
O169        H173   0.965       .  S
O170        H175   0.967       .  S
C188        C401   1.560       .  S
C188        C569   1.552       .  S
C188        C724   1.555       .  S
C188        C988   1.558       .  S
O189       Zr201   2.439       .  S
O189        C191   1.289       .  A
O190       Zr227   2.425       .  S
O190        C191   1.287       .  A
C191        C377   1.484       .  S
O192       Zr204   2.448   1_565  S
O192        C194   1.290       .  A
O193       Zr228   2.415       .  S
O193        C194   1.286       .  A
C194        C305   1.482       .  S
O195       Zr204   2.451       .  S
O195        C197   1.291       .  A
O196       Zr227   2.430       .  S
O196        C197   1.288       .  A
C197        C593   1.491       .  S
O198       Zr201   2.449   1_565  S
O198        C200   1.291       .  A
O199       Zr228   2.424       .  S
O199        C200   1.287       .  A
C200        C364   1.488       .  S
Zr201       O202   2.434       .  S
Zr201       O203   2.435       .  S
Zr201       O207   2.371       .  S
Zr201       O208   2.367   1_545  S
Zr201       O231   2.370   1_545  S
Zr201       O233   2.372       .  S
O202        H245   0.990       .  S
O203        H244   0.990   1_545  S
O203        H248   0.990   1_545  S
Zr204       O205   2.435       .  S
Zr204       O206   2.434       .  S
Zr204       O208   2.372   1_545  S
Zr204       O207   2.370       .  S
Zr204       O232   2.375       .  S
Zr204       O234   2.378   1_545  S
O205        H246   0.990       .  S
O205        H249   0.990       .  S
O206        H239   0.990   1_545  S
O207       Zr227   2.378       .  S
O208       Zr228   2.386       .  S
O208        H235   0.966       .  S
O209       Zr221   2.431   1_565  S
O209        C211   1.286       .  A
O210       Zr228   2.434   1_455  S
O210        C211   1.288       .  A
C211        C340   1.482       .  S
O212       Zr224   2.448       .  S
O212        C214   1.290       .  A
O213       Zr227   2.415   1_455  S
O213        C214   1.286       .  A
C214        C268   1.483       .  S
O215       Zr224   2.453   1_565  S
O215        C217   1.291       .  A
O216       Zr228   2.427   1_455  S
O216        C217   1.288       .  A
C217        C412   1.491       .  S
O218       Zr221   2.434       .  S
O218        C220   1.287       .  A
O219       Zr227   2.429   1_455  S
O219        C220   1.288       .  A
C220        C292   1.485       .  S
Zr221       O222   2.437   1_545  S
Zr221       O223   2.434       .  S
Zr221       O229   2.366   1_545  S
Zr221       O230   2.363       .  S
Zr221       O233   2.370   1_455  S
Zr221       O231   2.369   1_445  S
O222        H242   0.990       .  S
O222        H247   0.990   1_565  S
O223        H243   0.990   1_545  S
Zr224       O225   2.434       .  S
Zr224       O226   2.435       .  S
Zr224       O230   2.372       .  S
Zr224       O229   2.376   1_545  S
Zr224       O234   2.373   1_445  S
Zr224       O232   2.379   1_455  S
O225        H241   0.990   1_545  S
O226        H240   0.990       .  S
O226        H250   0.990   1_545  S
Zr227       O230   2.379   1_655  S
Zr227       O232   2.389       .  S
Zr227       O233   2.383       .  S
Zr228       O229   2.382   1_655  S
Zr228       O231   2.381       .  S
Zr228       O234   2.386       .  S
O229        H237   0.965       .  S
O232        H236   0.966       .  S
O233        H238   0.966       .  S
C251        C353   1.556       .  S
C251        C545   1.560       .  S
C251        C700   1.556       .  S
C251        C940   1.555       .  S
C252        C281   1.557       .  S
C252        C460   1.556       .  S
C252        C652   1.555       .  S
C252       C1012   1.558       .  S
C253        C388   1.552       .  S
C253        C436   1.552       .  S
C253        C796   1.552       .  S
C253        C892   1.554       .  S
C254        C329   1.558       .  S
C254        C473   1.556       .  S
C254        C665   1.555       .  S
C254        C916   1.557       .  S
C255        C257   1.550       .  S
C255        C521   1.553       .  S
C255        C772   1.554       .  S
C255        C857   1.553       .  S
C256        C316   1.555       .  S
C256        C497   1.553       .  S
C256        C737   1.559       .  S
C256        C844   1.555       .  S
C257        C258   1.413       .  A
C257        C262   1.413       .  A
C258        C259   1.393       .  A
C258        H271   1.083       .  S
C259        C260   1.399       .  A
C259        H272   1.084       .  S
C260        C261   1.407       .  A
C260        C263   1.485       .  S
C261        C262   1.400       .  A
C261        H273   1.081       .  S
C262        H274   1.080       .  S
C263        C264   1.345       .  D
C263        H275   1.086       .  S
C264        C265   1.484       .  S
C264        H276   1.085       .  S
C265        C266   1.401       .  A
C265        C270   1.408       .  A
C266        C267   1.396       .  A
C266        H277   1.083       .  S
C267        C268   1.407       .  A
C267        H278   1.083       .  S
C268        C269   1.406       .  A
C269        C270   1.399       .  A
C269        H279   1.083       .  S
C270        H280   1.082       .  S
C281        C282   1.416       .  A
C281        C286   1.414       .  A
C282        C283   1.395       .  A
C282        H295   1.078       .  S
C283        C284   1.398       .  A
C283        H296   1.084       .  S
C284        C285   1.405       .  A
C284        C287   1.486       .  S
C285        C286   1.399       .  A
C285        H297   1.082       .  S
C286        H298   1.083       .  S
C287        C288   1.345       .  D
C287        H299   1.085       .  S
C288        C289   1.487       .  S
C288        H300   1.086       .  S
C289        C290   1.401       .  A
C289        C294   1.409       .  A
C290        C291   1.395       .  A
C290        H301   1.084       .  S
C291        C292   1.407       .  A
C291        H302   1.083       .  S
C292        C293   1.407       .  A
C293        C294   1.402       .  A
C293        H303   1.083       .  S
C294        H304   1.081       .  S
C305        C306   1.407       .  A
C305        C310   1.405       .  A
C306        C307   1.397       .  A
C306        H319   1.083       .  S
C307        C308   1.402       .  A
C307        H320   1.083       .  S
C308        C309   1.410       .  A
C308        C311   1.488       .  S
C309        C310   1.398       .  A
C309        H321   1.081       .  S
C310        H322   1.083       .  S
C311        C312   1.346       .  D
C311        H323   1.085       .  S
C312        C313   1.485       .  S
C312        H324   1.085       .  S
C313        C314   1.397       .  A
C313        C318   1.407       .  A
C314        C315   1.392       .  A
C314        H325   1.084       .  S
C315        C316   1.417       .  A
C315        H326   1.079       .  S
C316        C317   1.413       .  A
C317        C318   1.402       .  A
C317        H327   1.083       .  S
C318        H328   1.081       .  S
C329        C330   1.415       .  A
C329        C334   1.415       .  A
C330        C331   1.402       .  A
C330        H343   1.083       .  S
C331        C332   1.401       .  A
C331        H344   1.083       .  S
C332        C333   1.404       .  A
C332        C335   1.489       .  S
C333        C334   1.393       .  A
C333        H345   1.082       .  S
C334        H346   1.079       .  S
C335        C336   1.348       .  D
C335        H347   1.084       .  S
C336        C337   1.488       .  S
C336        H348   1.086       .  S
C337        C338   1.402       .  A
C337        C342   1.411       .  A
C338        C339   1.392       .  A
C338        H349   1.084       .  S
C339        C340   1.404       .  A
C339        H350   1.083       .  S
C340        C341   1.406       .  A
C341        C342   1.406       .  A
C341        H351   1.083       .  S
C342        H352   1.080       .  S
C353        C354   1.414       .  A
C353        C358   1.415       .  A
C354        C355   1.393       .  A
C354        H367   1.080       .  S
C355        C356   1.401       .  A
C355        H368   1.084       .  S
C356        C357   1.408       .  A
C356        C359   1.493       .  S
C357        C358   1.405       .  A
C357        H369   1.080       .  S
C358        H370   1.083       .  S
C359        C360   1.350       .  D
C359        H371   1.083       .  S
C360        C361   1.496       .  S
C360        H372   1.084       .  S
C361        C362   1.405       .  A
C361        C366   1.410       .  A
C362        C363   1.401       .  A
C362        H373   1.083       .  S
C363        C364   1.408       .  A
C363        H374   1.083       .  S
C364        C365   1.405       .  A
C365        C366   1.398       .  A
C365        H375   1.083       .  S
C366        H376   1.080       .  S
C377        C378   1.407       .  A
C377        C382   1.407       .  A
C378        C379   1.399       .  A
C378        H391   1.083       .  S
C379        C380   1.403       .  A
C379        H392   1.083       .  S
C380        C381   1.406       .  A
C380        C383   1.484       .  S
C381        C382   1.396       .  A
C381        H393   1.082       .  S
C382        H394   1.083       .  S
C383        C384   1.345       .  D
C383        H395   1.086       .  S
C384        C385   1.481       .  S
C384        H396   1.086       .  S
C385        C386   1.398       .  A
C385        C390   1.404       .  A
C386        C387   1.394       .  A
C386        H397   1.083       .  S
C387        C388   1.414       .  A
C387        H398   1.083       .  S
C388        C389   1.414       .  A
C389        C390   1.399       .  A
C389        H399   1.079       .  S
C390        H400   1.082       .  S
C401        C402   1.416       .  A
C401        C406   1.414       .  A
C402        C403   1.395       .  A
C402        H415   1.080       .  S
C403        C404   1.400       .  A
C403        H416   1.084       .  S
C404        C405   1.409       .  A
C404        C407   1.494       .  S
C405        C406   1.407       .  A
C405        H417   1.081       .  S
C406        H418   1.083       .  S
C407        C408   1.350       .  D
C407        H419   1.085       .  S
C408        C409   1.495       .  S
C408        H420   1.085       .  S
C409        C410   1.404       .  A
C409        C414   1.409       .  A
C410        C411   1.402       .  A
C410        H421   1.083       .  S
C411        C412   1.408       .  A
C411        H422   1.083       .  S
C412        C413   1.407       .  A
C413        C414   1.400       .  A
C413        H423   1.083       .  S
C414        H424   1.081       .  S
C425        C426   1.406       .  A
C425        C430   1.406       .  A
C426        C427   1.398       .  A
C426        H439   1.083       .  S
C427        C428   1.403       .  A
C427        H440   1.083       .  S
C428        C429   1.406       .  A
C428        C431   1.484       .  S
C429        C430   1.395       .  A
C429        H441   1.082       .  S
C430        H442   1.083       .  S
C431        C432   1.346       .  D
C431        H443   1.085       .  S
C432        C433   1.485       .  S
C432        H444   1.086       .  S
C433        C434   1.399       .  A
C433        C438   1.406       .  A
C434        C435   1.394       .  A
C434        H445   1.083       .  S
C435        C436   1.413       .  A
C435        H446   1.083       .  S
C436        C437   1.414       .  A
C437        C438   1.400       .  A
C437        H447   1.080       .  S
C438        H448   1.081       .  S
C449        C450   1.407       .  A
C449        C454   1.406       .  A
C450        C451   1.399       .  A
C450        H463   1.083       .  S
C451        C452   1.404       .  A
C451        H464   1.083       .  S
C452        C453   1.408       .  A
C452        C455   1.488       .  S
C453        C454   1.398       .  A
C453        H465   1.081       .  S
C454        H466   1.083       .  S
C455        C456   1.348       .  D
C455        H467   1.085       .  S
C456        C457   1.488       .  S
C456        H468   1.085       .  S
C457        C458   1.400       .  A
C457        C462   1.406       .  A
C458        C459   1.396       .  A
C458        H469   1.083       .  S
C459        C460   1.414       .  A
C459        H470   1.083       .  S
C460        C461   1.415       .  A
C461        C462   1.400       .  A
C461        H471   1.079       .  S
C462        H472   1.081       .  S
C473        C474   1.413       .  A
C473        C478   1.414       .  A
C474        C475   1.396       .  A
C474        H487   1.083       .  S
C475        C476   1.401       .  A
C475        H488   1.083       .  S
C476        C477   1.407       .  A
C476        C479   1.489       .  S
C477        C478   1.402       .  A
C477        H489   1.081       .  S
C478        H490   1.079       .  S
C479        C480   1.348       .  D
C479        H491   1.086       .  S
C480        C481   1.489       .  S
C480        H492   1.085       .  S
C481        C482   1.403       .  A
C481        C486   1.407       .  A
C482        C483   1.400       .  A
C482        H493   1.083       .  S
C483        C484   1.408       .  A
C483        H494   1.083       .  S
C484        C485   1.407       .  A
C485        C486   1.399       .  A
C485        H495   1.083       .  S
C486        H496   1.082       .  S
C497        C498   1.414       .  A
C497        C502   1.413       .  A
C498        C499   1.394       .  A
C498        H511   1.083       .  S
C499        C500   1.403       .  A
C499        H512   1.082       .  S
C500        C501   1.402       .  A
C500        C503   1.486       .  S
C501        C502   1.401       .  A
C501        H513   1.083       .  S
C502        H514   1.079       .  S
C503        C504   1.348       .  D
C503        H515   1.085       .  S
C504        C505   1.486       .  S
C504        H516   1.086       .  S
C505        C506   1.402       .  A
C505        C510   1.408       .  A
C506        C507   1.394       .  A
C506        H517   1.084       .  S
C507        C508   1.406       .  A
C507        H518   1.083       .  S
C508        C509   1.407       .  A
C509        C510   1.401       .  A
C509        H519   1.083       .  S
C510        H520   1.081       .  S
C521        C522   1.414       .  A
C521        C526   1.413       .  A
C522        C523   1.395       .  A
C522        H535   1.083       .  S
C523        C524   1.400       .  A
C523        H536   1.083       .  S
C524        C525   1.405       .  A
C524        C527   1.485       .  S
C525        C526   1.398       .  A
C525        H537   1.081       .  S
C526        H538   1.079       .  S
C527        C528   1.346       .  D
C527        H539   1.086       .  S
C528        C529   1.484       .  S
C528        H540   1.085       .  S
C529        C530   1.402       .  A
C529        C534   1.407       .  A
C530        C531   1.398       .  A
C530        H541   1.083       .  S
C531        C532   1.409       .  A
C531        H542   1.083       .  S
C532        C533   1.406       .  A
C533        C534   1.398       .  A
C533        H543   1.083       .  S
C534        H544   1.082       .  S
C545        C546   1.415       .  A
C545        C550   1.413       .  A
C546        C547   1.403       .  A
C546        H559   1.079       .  S
C547        C548   1.404       .  A
C547        H560   1.083       .  S
C548        C549   1.407       .  A
C548        C551   1.497       .  S
C549        C550   1.398       .  A
C549        H561   1.081       .  S
C550        H562   1.083       .  S
C551        C552   1.350       .  D
C551        H563   1.085       .  S
C552        C553   1.493       .  S
C552        H564   1.085       .  S
C553        C554   1.403       .  A
C553        C558   1.410       .  A
C554        C555   1.395       .  A
C554        H565   1.084       .  S
C555        C556   1.406       .  A
C555        H566   1.083       .  S
C556        C557   1.410       .  A
C557        C558   1.409       .  A
C557        H567   1.083       .  S
C558        H568   1.082       .  S
C569        C570   1.414       .  A
C569        C574   1.413       .  A
C570        C571   1.401       .  A
C570        H583   1.079       .  S
C571        C572   1.401       .  A
C571        H584   1.083       .  S
C572        C573   1.402       .  A
C572        C575   1.483       .  S
C573        C574   1.391       .  A
C573        H585   1.083       .  S
C574        H586   1.083       .  S
C575        C576   1.346       .  D
C575        H587   1.085       .  S
C576        C577   1.482       .  S
C576        H588   1.087       .  S
C577        C578   1.402       .  A
C577        C582   1.407       .  A
C578        C579   1.392       .  A
C578        H589   1.084       .  S
C579        C580   1.406       .  A
C579        H590   1.083       .  S
C580        C581   1.407       .  A
C581        C582   1.400       .  A
C581        H591   1.083       .  S
C582        H592   1.081       .  S
C593        C594   1.408       .  A
C593        C598   1.407       .  A
C594        C595   1.403       .  A
C594        H607   1.083       .  S
C595        C596   1.405       .  A
C595        H608   1.083       .  S
C596        C597   1.409       .  A
C596        C599   1.495       .  S
C597        C598   1.399       .  A
C597        H609   1.081       .  S
C598        H610   1.083       .  S
C599        C600   1.350       .  D
C599        H611   1.084       .  S
C600        C601   1.494       .  S
C600        H612   1.084       .  S
C601        C602   1.401       .  A
C601        C606   1.408       .  A
C602        C603   1.395       .  A
C602        H613   1.084       .  S
C603        C604   1.415       .  A
C603        H614   1.080       .  S
C604        C605   1.414       .  A
C605        C606   1.404       .  A
C605        H615   1.083       .  S
C606        H616   1.080       .  S
C617        C618   1.414       .  A
C617        C622   1.413       .  A
C618        C619   1.402       .  A
C618        H631   1.079       .  S
C619        C620   1.403       .  A
C619        H632   1.083       .  S
C620        C621   1.406       .  A
C620        C623   1.493       .  S
C621        C622   1.397       .  A
C621        H633   1.081       .  S
C622        H634   1.083       .  S
C623        C624   1.349       .  D
C623        H635   1.085       .  S
C624        C625   1.490       .  S
C624        H636   1.085       .  S
C625        C626   1.402       .  A
C625        C630   1.410       .  A
C626        C627   1.393       .  A
C626        H637   1.084       .  S
C627        C628   1.406       .  A
C627        H638   1.083       .  S
C628        C629   1.408       .  A
C629        C630   1.406       .  A
C629        H639   1.083       .  S
C630        H640   1.081       .  S
C641        C642   1.409       .  A
C641        C646   1.407       .  A
C642        C643   1.391       .  A
C642        H655   1.083       .  S
C643        C644   1.398       .  A
C643        H656   1.084       .  S
C644        C645   1.409       .  A
C644        C647   1.483       .  S
C645        C646   1.405       .  A
C645        H657   1.082       .  S
C646        H658   1.083       .  S
C647        C648   1.345       .  D
C647        H659   1.085       .  S
C648        C649   1.487       .  S
C648        H660   1.086       .  S
C649        C650   1.400       .  A
C649        C654   1.405       .  A
C650        C651   1.397       .  A
C650        H661   1.084       .  S
C651        C652   1.415       .  A
C651        H662   1.078       .  S
C652        C653   1.413       .  A
C653        C654   1.396       .  A
C653        H663   1.083       .  S
C654        H664   1.081       .  S
C665        C666   1.415       .  A
C665        C670   1.414       .  A
C666        C667   1.402       .  A
C666        H679   1.083       .  S
C667        C668   1.401       .  A
C667        H680   1.083       .  S
C668        C669   1.404       .  A
C668        C671   1.488       .  S
C669        C670   1.393       .  A
C669        H681   1.082       .  S
C670        H682   1.079       .  S
C671        C672   1.347       .  D
C671        H683   1.084       .  S
C672        C673   1.486       .  S
C672        H684   1.086       .  S
C673        C674   1.401       .  A
C673        C678   1.410       .  A
C674        C675   1.391       .  A
C674        H685   1.084       .  S
C675        C676   1.405       .  A
C675        H686   1.083       .  S
C676        C677   1.408       .  A
C677        C678   1.406       .  A
C677        H687   1.083       .  S
C678        H688   1.081       .  S
C689        C690   1.402       .  A
C689        C694   1.406       .  A
C690        C691   1.394       .  A
C690        H703   1.083       .  S
C691        C692   1.404       .  A
C691        H704   1.084       .  S
C692        C693   1.409       .  A
C692        C695   1.488       .  S
C693        C694   1.403       .  A
C693        H705   1.081       .  S
C694        H706   1.083       .  S
C695        C696   1.349       .  D
C695        H707   1.087       .  S
C696        C697   1.487       .  S
C696        H708   1.084       .  S
C697        C698   1.401       .  A
C697        C702   1.403       .  A
C698        C699   1.403       .  A
C698        H709   1.083       .  S
C699        C700   1.415       .  A
C699        H710   1.083       .  S
C700        C701   1.415       .  A
C701        C702   1.394       .  A
C701        H711   1.080       .  S
C702        H712   1.083       .  S
C713        C714   1.406       .  A
C713        C718   1.408       .  A
C714        C715   1.394       .  A
C714        H727   1.083       .  S
C715        C716   1.402       .  A
C715        H728   1.084       .  S
C716        C717   1.407       .  A
C716        C719   1.484       .  S
C717        C718   1.402       .  A
C717        H729   1.081       .  S
C718        H730   1.083       .  S
C719        C720   1.348       .  D
C719        H731   1.086       .  S
C720        C721   1.487       .  S
C720        H732   1.085       .  S
C721        C722   1.402       .  A
C721        C726   1.403       .  A
C722        C723   1.402       .  A
C722        H733   1.083       .  S
C723        C724   1.414       .  A
C723        H734   1.079       .  S
C724        C725   1.414       .  A
C725        C726   1.392       .  A
C725        H735   1.083       .  S
C726        H736   1.082       .  S
C737        C738   1.416       .  A
C737        C742   1.414       .  A
C738        C739   1.394       .  A
C738        H751   1.080       .  S
C739        C740   1.399       .  A
C739        H752   1.084       .  S
C740        C741   1.408       .  A
C740        C743   1.492       .  S
C741        C742   1.405       .  A
C741        H753   1.081       .  S
C742        H754   1.083       .  S
C743        C744   1.348       .  D
C743        H755   1.085       .  S
C744        C745   1.492       .  S
C744        H756   1.084       .  S
C745        C746   1.403       .  A
C745        C750   1.409       .  A
C746        C747   1.401       .  A
C746        H757   1.083       .  S
C747        C748   1.409       .  A
C747        H758   1.083       .  S
C748        C749   1.407       .  A
C749        C750   1.400       .  A
C749        H759   1.083       .  S
C750        H760   1.082       .  S
C761        C762   1.405       .  A
C761        C766   1.405       .  A
C762        C763   1.397       .  A
C762        H775   1.083       .  S
C763        C764   1.401       .  A
C763        H776   1.083       .  S
C764        C765   1.407       .  A
C764        C767   1.482       .  S
C765        C766   1.403       .  A
C765        H777   1.083       .  S
C766        H778   1.083       .  S
C767        C768   1.346       .  D
C767        H779   1.086       .  S
C768        C769   1.486       .  S
C768        H780   1.087       .  S
C769        C770   1.401       .  A
C769        C774   1.404       .  A
C770        C771   1.398       .  A
C770        H781   1.083       .  S
C771        C772   1.412       .  A
C771        H782   1.083       .  S
C772        C773   1.416       .  A
C773        C774   1.398       .  A
C773        H783   1.080       .  S
C774        H784   1.082       .  S
C785        C786   1.406       .  A
C785        C790   1.406       .  A
C786        C787   1.395       .  A
C786        H799   1.083       .  S
C787        C788   1.401       .  A
C787        H800   1.083       .  S
C788        C789   1.409       .  A
C788        C791   1.486       .  S
C789        C790   1.402       .  A
C789        H801   1.082       .  S
C790        H802   1.083       .  S
C791        C792   1.346       .  D
C791        H803   1.085       .  S
C792        C793   1.489       .  S
C792        H804   1.086       .  S
C793        C794   1.400       .  A
C793        C798   1.407       .  A
C794        C795   1.396       .  A
C794        H805   1.084       .  S
C795        C796   1.414       .  A
C795        H806   1.080       .  S
C796        C797   1.412       .  A
C797        C798   1.399       .  A
C797        H807   1.083       .  S
C798        H808   1.081       .  S
C809        C810   1.413       .  A
C809        C814   1.415       .  A
C810        C811   1.402       .  A
C810        H823   1.083       .  S
C811        C812   1.402       .  A
C811        H824   1.083       .  S
C812        C813   1.405       .  A
C812        C815   1.492       .  S
C813        C814   1.395       .  A
C813        H825   1.082       .  S
C814        H826   1.081       .  S
C815        C816   1.350       .  D
C815        H827   1.083       .  S
C816        C817   1.493       .  S
C816        H828   1.086       .  S
C817        C818   1.403       .  A
C817        C822   1.411       .  A
C818        C819   1.393       .  A
C818        H829   1.084       .  S
C819        C820   1.406       .  A
C819        H830   1.083       .  S
C820        C821   1.408       .  A
C821        C822   1.407       .  A
C821        H831   1.083       .  S
C822        H832   1.080       .  S
C833        C834   1.406       .  A
C833        C838   1.410       .  A
C834        C835   1.394       .  A
C834        H847   1.083       .  S
C835        C836   1.402       .  A
C835        H848   1.084       .  S
C836        C837   1.408       .  A
C836        C839   1.486       .  S
C837        C838   1.404       .  A
C837        H849   1.082       .  S
C838        H850   1.083       .  S
C839        C840   1.349       .  D
C839        H851   1.086       .  S
C840        C841   1.490       .  S
C840        H852   1.085       .  S
C841        C842   1.403       .  A
C841        C846   1.404       .  A
C842        C843   1.403       .  A
C842        H853   1.083       .  S
C843        C844   1.414       .  A
C843        H854   1.079       .  S
C844        C845   1.413       .  A
C845        C846   1.394       .  A
C845        H855   1.083       .  S
C846        H856   1.082       .  S
C857        C858   1.412       .  A
C857        C862   1.416       .  A
C858        C859   1.397       .  A
C858        H871   1.083       .  S
C859        C860   1.401       .  A
C859        H872   1.083       .  S
C860        C861   1.404       .  A
C860        C863   1.486       .  S
C861        C862   1.399       .  A
C861        H873   1.082       .  S
C862        H874   1.079       .  S
C863        C864   1.349       .  D
C863        H875   1.085       .  S
C864        C865   1.489       .  S
C864        H876   1.086       .  S
C865        C866   1.405       .  A
C865        C870   1.406       .  A
C866        C867   1.403       .  A
C866        H877   1.083       .  S
C867        C868   1.408       .  A
C867        H878   1.083       .  S
C868        C869   1.407       .  A
C869        C870   1.397       .  A
C869        H879   1.083       .  S
C870        H880   1.082       .  S
C881        C882   1.406       .  A
C881        C886   1.407       .  A
C882        C883   1.397       .  A
C882        H895   1.083       .  S
C883        C884   1.401       .  A
C883        H896   1.083       .  S
C884        C885   1.408       .  A
C884        C887   1.484       .  S
C885        C886   1.406       .  A
C885        H897   1.083       .  S
C886        H898   1.083       .  S
C887        C888   1.345       .  D
C887        H899   1.087       .  S
C888        C889   1.487       .  S
C888        H900   1.087       .  S
C889        C890   1.400       .  A
C889        C894   1.404       .  A
C890        C891   1.399       .  A
C890        H901   1.083       .  S
C891        C892   1.413       .  A
C891        H902   1.083       .  S
C892        C893   1.415       .  A
C893        C894   1.399       .  A
C893        H903   1.080       .  S
C894        H904   1.083       .  S
C905        C906   1.407       .  A
C905        C910   1.408       .  A
C906        C907   1.399       .  A
C906        H919   1.083       .  S
C907        C908   1.403       .  A
C907        H920   1.083       .  S
C908        C909   1.408       .  A
C908        C911   1.488       .  S
C909        C910   1.400       .  A
C909        H921   1.082       .  S
C910        H922   1.083       .  S
C911        C912   1.348       .  D
C911        H923   1.084       .  S
C912        C913   1.491       .  S
C912        H924   1.086       .  S
C913        C914   1.401       .  A
C913        C918   1.407       .  A
C914        C915   1.397       .  A
C914        H925   1.083       .  S
C915        C916   1.414       .  A
C915        H926   1.083       .  S
C916        C917   1.413       .  A
C917        C918   1.401       .  A
C917        H927   1.078       .  S
C918        H928   1.081       .  S
C929        C930   1.407       .  A
C929        C934   1.407       .  A
C930        C931   1.398       .  A
C930        H943   1.083       .  S
C931        C932   1.402       .  A
C931        H944   1.083       .  S
C932        C933   1.408       .  A
C932        C935   1.489       .  S
C933        C934   1.399       .  A
C933        H945   1.082       .  S
C934        H946   1.083       .  S
C935        C936   1.347       .  D
C935        H947   1.084       .  S
C936        C937   1.490       .  S
C936        H948   1.086       .  S
C937        C938   1.400       .  A
C937        C942   1.408       .  A
C938        C939   1.393       .  A
C938        H949   1.083       .  S
C939        C940   1.413       .  A
C939        H950   1.083       .  S
C940        C941   1.414       .  A
C941        C942   1.403       .  A
C941        H951   1.079       .  S
C942        H952   1.081       .  S
C953        C954   1.413       .  A
C953        C958   1.413       .  A
C954        C955   1.394       .  A
C954        H967   1.083       .  S
C955        C956   1.400       .  A
C955        H968   1.084       .  S
C956        C957   1.408       .  A
C956        C959   1.488       .  S
C957        C958   1.402       .  A
C957        H969   1.081       .  S
C958        H970   1.079       .  S
C959        C960   1.347       .  D
C959        H971   1.087       .  S
C960        C961   1.486       .  S
C960        H972   1.084       .  S
C961        C962   1.401       .  A
C961        C966   1.407       .  A
C962        C963   1.398       .  A
C962        H973   1.083       .  S
C963        C964   1.408       .  A
C963        H974   1.083       .  S
C964        C965   1.407       .  A
C965        C966   1.399       .  A
C965        H975   1.083       .  S
C966        H976   1.082       .  S
C977        C978   1.409       .  A
C977        C982   1.407       .  A
C978        C979   1.401       .  A
C978        H991   1.083       .  S
C979        C980   1.404       .  A
C979        H992   1.083       .  S
C980        C981   1.410       .  A
C980        C983   1.494       .  S
C981        C982   1.401       .  A
C981        H993   1.081       .  S
C982        H994   1.083       .  S
C983        C984   1.350       .  D
C983        H995   1.084       .  S
C984        C985   1.494       .  S
C984        H996   1.085       .  S
C985        C986   1.400       .  A
C985        C990   1.409       .  A
C986        C987   1.395       .  A
C986        H997   1.084       .  S
C987        C988   1.415       .  A
C987        H998   1.080       .  S
C988        C989   1.413       .  A
C989        C990   1.405       .  A
C989        H999   1.083       .  S
C990       H1000   1.080       .  S
C1001      C1002   1.406       .  A
C1001      C1006   1.409       .  A
C1002      C1003   1.399       .  A
C1002      H1015   1.083       .  S
C1003      C1004   1.403       .  A
C1003      H1016   1.083       .  S
C1004      C1005   1.407       .  A
C1004      C1007   1.489       .  S
C1005      C1006   1.402       .  A
C1005      H1017   1.082       .  S
C1006      H1018   1.083       .  S
C1007      C1008   1.349       .  D
C1007      H1019   1.086       .  S
C1008      C1009   1.491       .  S
C1008      H1020   1.086       .  S
C1009      C1010   1.401       .  A
C1009      C1014   1.405       .  A
C1010      C1011   1.399       .  A
C1010      H1021   1.083       .  S
C1011      C1012   1.414       .  A
C1011      H1022   1.083       .  S
C1012      C1013   1.415       .  A
C1013      C1014   1.400       .  A
C1013      H1023   1.079       .  S
C1014      H1024   1.082       .  S
