geometry optimzed in LAMMPS
_audit_creation_date              2020-11-30 
_audit_creation_method            'lammps2cif' 
_symmetry_space_group_name_H-M    'P1' 
_symmetry_Int_Tables_number       1 
_symmetry_cell_setting            triclinic 
loop_ 
_symmetry_equiv_pos_as_xyz 
  x,y,z 
_cell_length_a                    28.48370963 
_cell_length_b                    45.21413223322156 
_cell_length_c                    27.718122844410477 
_cell_angle_alpha                 89.90728026710687 
_cell_angle_beta                  88.71686512105306 
_cell_angle_gamma                 89.17343350454281 
loop_ 
_atom_site_label 
_atom_site_type_symbol 
_atom_site_fract_x 
_atom_site_fract_y 
_atom_site_fract_z 
_atom_site_charge 
O1          O  0.98257109  0.23146223  0.89057223    -0.76000
C2          C  0.00396963  0.16622406  0.00091540     0.85100
O3          O  0.89094901  0.26844521  0.02287767    -0.77100
O4          O  0.02532933  0.23218524  0.11083873    -0.78600
O5          O  0.11663430  0.26695145  0.97482182    -0.78400
O6          O  0.03690453  0.26677834  0.88896063    -0.77000
Zn7        Zn  0.96583653  0.22396516  0.95931507     1.55700
O8          O  0.11441192  0.23121906  0.03041814    -0.78400
Cd9        Cd  0.04670507  0.27537906  0.96028880     1.59700
Cd10       Cd  0.96057888  0.27595233  0.03678481     1.59600
O11         O  0.03319669  0.32009660  0.97204853    -0.78400
O12         O  0.00374660  0.24939014  0.99863451    -1.88900
Cd13       Cd  0.04327697  0.22362370  0.04048735     1.59900
O14         O  0.97294401  0.32029786  0.02478906    -0.78300
O15         O  0.03190885  0.17913835  0.02885754    -0.77000
C16         C  0.87211217  0.25020664  0.99463393     0.85600
C17         C  0.01031475  0.24870010  0.86810788     0.85200
O18         O  0.97702869  0.18051149  0.97294704    -0.75900
C19         C  0.13700556  0.24897968  0.00318014     0.86000
O20         O  0.89630470  0.23228530  0.96855171    -0.76000
C21         C  0.00290859  0.33375810  0.99848910     0.86200
C22         C  0.99603058  0.24994844  0.13098348     0.86500
O23         O  0.96981522  0.26775667  0.10808610    -0.78400
O24         O  0.02011766  0.31860479  0.52546178    -0.76000
C25         C  0.99595164  0.24928430  0.63100210     0.85100
O26         O  0.10134300  0.23083656  0.46651586    -0.77100
O27         O  0.96316736  0.17940103  0.52911140    -0.78600
O28         O  0.87780932  0.26882992  0.47919639    -0.78400
O29         O  0.96134930  0.32075188  0.47391736    -0.77000
Zn30       Zn  0.03209222  0.27502836  0.53693301     1.55700
O31         O  0.87949124  0.23246131  0.53366121    -0.78400
Cd32       Cd  0.94804620  0.27634399  0.46312137     1.59700
Cd33       Cd  0.03050595  0.22360929  0.45851406     1.59600
O34         O  0.95909647  0.26780126  0.39153326    -0.78400
O35         O  0.99075434  0.25005516  0.50066552    -1.88900
Cd36       Cd  0.95062287  0.22403076  0.54215294     1.59900
O37         O  0.01481286  0.23227122  0.38852403    -0.78300
O38         O  0.96683095  0.23189512  0.61228228    -0.77000
C39         C  0.12247586  0.24902953  0.49303551     0.85600
C40         C  0.99151748  0.33327921  0.49983277     0.85200
O41         O  0.02196153  0.26661326  0.60658943    -0.75900
C42         C  0.85712358  0.25073036  0.50742154     0.86000
O43         O  0.10048877  0.26688771  0.52111747    -0.76000
C44         C  0.98628227  0.25004096  0.36851219     0.86200
C45         C  0.99126626  0.16572504  0.50029343     0.86500
O46         O  0.01892997  0.17917857  0.47137090    -0.78400
O47         O  0.53350443  0.31734292  0.02396279    -0.76000
C48         C  0.50809481  0.24845020  0.12845530     0.85100
O49         O  0.61663897  0.23031116  0.96354210    -0.77100
O50         O  0.47856238  0.17778231  0.02641188    -0.78600
O51         O  0.39306351  0.26761521  0.97579081    -0.78400
O52         O  0.47598222  0.31919741  0.97097241    -0.75400
Zn53       Zn  0.54642171  0.27366450  0.03483104     1.55700
O54         O  0.39423212  0.23037101  0.02860324    -0.78400
Cd55       Cd  0.46331623  0.27483651  0.96024058     1.59700
Cd56       Cd  0.54589559  0.22219288  0.95565505     1.59600
O57         O  0.47376010  0.26581290  0.88895444    -0.78400
O58         O  0.50581402  0.24852793  0.99788969    -1.88900
Cd59       Cd  0.46524422  0.22240748  0.03875541     1.59900
O60         O  0.52887772  0.22993330  0.88533059    -0.78300
O61         O  0.47939048  0.23100742  0.10918374    -0.77000
C62         C  0.63739592  0.24828663  0.99083613     0.85600
C63         C  0.50506020  0.33188101  0.99791842     0.85200
O64         O  0.53520688  0.26533095  0.10446181    -0.75900
C65         C  0.37212679  0.24903662  0.00287991     0.86000
O66         O  0.61503560  0.26572469  0.01937255    -0.76000
C67         C  0.49994819  0.24763634  0.86564963     0.86200
C68         C  0.50722660  0.16411444  0.99816298     0.86500
O69         O  0.53525371  0.17762113  0.96961997    -0.78400
O70         O  0.51599291  0.31713590  0.52787539    -0.76000
C71         C  0.48089386  0.24747866  0.62927666     0.85100
O72         O  0.60390178  0.23066274  0.47581922    -0.77100
O73         O  0.46074096  0.17757198  0.52300416    -0.78600
O74         O  0.38031501  0.26766572  0.46608181    -0.78400
O75         O  0.46312479  0.31932649  0.47002401    -0.77000
Zn76       Zn  0.52724509  0.27355197  0.53999700     1.55700
O77         O  0.37699859  0.23074417  0.51950315    -0.78400
Cd78       Cd  0.45154824  0.27500354  0.45721862     1.59700
Cd79       Cd  0.53446241  0.22261687  0.46059231     1.59600
O80         O  0.47001046  0.26706572  0.38681330    -0.78400
O81         O  0.49036694  0.24861581  0.49883979    -1.88900
Cd82       Cd  0.44651130  0.22216705  0.53533570     1.59900
O83         O  0.52585992  0.23167141  0.38911968    -0.78300
O84         O  0.45433220  0.22993000  0.60724826    -0.77000
C85         C  0.62205616  0.24868685  0.50496282     0.85600
C86         C  0.49027568  0.33182223  0.49925889     0.85200
O87         O  0.50933011  0.26480760  0.60798564    -0.75900
C88         C  0.35722267  0.24939883  0.49187675     0.86000
O89         O  0.59714399  0.26597414  0.53150488    -0.76000
C90         C  0.49962394  0.24961603  0.36641176     0.86200
C91         C  0.49203870  0.16415131  0.49746815     0.86500
O92         O  0.52243912  0.17792305  0.47204217    -0.78400
N93         N  0.00470735  0.46817769  0.94642632    -0.34100
N94         N  0.00058684  0.46779203  0.05445146    -0.54600
N95         N  0.99664998  0.03183300  0.05487569    -0.34100
N96         N  0.99933633  0.03213698  0.94692137    -0.54600
C97         C  0.99928893  0.43892010  0.95511379     0.29500
C98         C  0.99953765  0.47267437  0.89821228     0.29500
C99         C  0.00091208  0.02722833  0.10313608     0.29500
C100        C  0.00165103  0.06114077  0.04641548     0.29500
C101        C  0.00345755  0.43833925  0.04635552     0.38100
C102        C  0.00062259  0.47174736  0.10296882     0.38100
C103        C  0.00031309  0.02815454  0.89837041     0.38100
C104        C  0.99933302  0.06163586  0.95494931     0.38100
C105        C  0.99163740  0.42460206  0.91171511    -0.19400
C106        C  0.99189114  0.44577834  0.87604810    -0.19400
C107        C  0.00759831  0.05415894  0.12563727    -0.19300
C108        C  0.00807597  0.07544189  0.09008623    -0.19300
C109        C  0.00554437  0.42346687  0.09017353    -0.20400
C110        C  0.00374419  0.44455077  0.12585856    -0.20400
C111        C  0.00074909  0.05538356  0.87540286    -0.20400
C112        C  0.00009118  0.07649937  0.91103067    -0.20400
C113        C  0.00204454  0.42432648  0.00053812    -0.15800
C114        C  0.00143217  0.50020892  0.87330272    -0.15800
C115        C  0.00037416  0.07568325  0.00081181    -0.15800
C116        C  0.99866207  0.49946886  0.12705868    -0.15800
H117        H  0.98616778  0.40122448  0.90617651     0.17200
H118        H  0.98650600  0.44178817  0.83809455     0.17200
H119        H  0.01213639  0.05811385  0.16374214     0.17200
H120        H  0.01300524  0.09885172  0.09586776     0.17200
H121        H  0.00766876  0.39981113  0.09596589     0.15400
H122        H  0.00467147  0.44029087  0.16426531     0.15400
H123        H  0.00145844  0.05964884  0.83696267     0.15400
H124        H  0.00060728  0.10016227  0.90512499     0.15400
H125        H  0.01522712  0.48348666  0.97157972     0.28700
H126        H  0.98747298  0.01645045  0.02935007     0.28700
N127        N  0.00057697  0.46739203  0.55381585    -0.34100
N128        N  0.99730338  0.03144495  0.55486128    -0.54600
N129        N  0.99306161  0.03119488  0.44721043    -0.34100
N130        N  0.99784194  0.46734671  0.44610035    -0.54600
C131        C  0.99419832  0.47214040  0.60199812     0.29500
C132        C  0.99269281  0.43843356  0.54524442     0.29500
C133        C  0.99471314  0.06068273  0.45529599     0.29500
C134        C  0.99595235  0.02681437  0.39865232     0.29500
C135        C  0.00023831  0.02746594  0.60325601     0.38100
C136        C  0.99616255  0.06096389  0.54680255     0.38100
C137        C  0.00243392  0.43795998  0.45435928     0.38100
C138        C  0.00308983  0.47143816  0.39774993     0.38100
C139        C  0.98292961  0.44565430  0.62435621    -0.19400
C140        C  0.98189909  0.42447810  0.58872437    -0.19400
C141        C  0.99749408  0.07528785  0.41117851    -0.19300
C142        C  0.99826776  0.05403800  0.37568537    -0.19300
C143        C  0.00082960  0.05467661  0.62609098    -0.20400
C144        C  0.99823080  0.07580497  0.59053967    -0.20400
C145        C  0.01008609  0.42328138  0.41083434    -0.20400
C146        C  0.01048937  0.44442187  0.37513561    -0.20400
C147        C  0.99946850  0.49946338  0.62659876    -0.15800
C148        C  0.99719119  0.42378905  0.49992772    -0.15800
C149        C  0.99920245  0.49901953  0.37347219    -0.15800
C150        C  0.99421185  0.07510160  0.50097110    -0.15800
H151        H  0.97611929  0.44191958  0.66243695     0.17200
H152        H  0.97432906  0.40132259  0.59436686     0.17200
H153        H  0.99939386  0.09888996  0.40502695     0.17200
H154        H  0.00087908  0.05823528  0.33727067     0.17200
H155        H  0.00267602  0.05892045  0.66441344     0.15400
H156        H  0.99812829  0.09947115  0.59635348     0.15400
H157        H  0.01455451  0.39971186  0.40525032     0.15400
H158        H  0.01534598  0.44031733  0.33687601     0.15400
H159        H  0.01403582  0.48216109  0.52872209     0.28700
H160        H  0.98780768  0.01534852  0.47359045     0.28700
N161        N  0.50694394  0.46588514  0.94471773    -0.34100
N162        N  0.50526019  0.46627262  0.05256491    -0.54600
N163        N  0.50687120  0.02960739  0.05129937    -0.34100
N164        N  0.50261225  0.02985444  0.94375203    -0.54600
C165        C  0.49976506  0.43690972  0.95423686     0.29500
C166        C  0.49950196  0.47037808  0.89691943     0.29500
C167        C  0.50052542  0.02500896  0.09951338     0.29500
C168        C  0.50083565  0.05888676  0.04279623     0.29500
C169        C  0.50964680  0.43683199  0.04465206     0.38100
C170        C  0.50983459  0.47051765  0.10070640     0.38100
C171        C  0.50640156  0.02563264  0.89528886     0.38100
C172        C  0.50847844  0.05909426  0.95173457     0.38100
C173        C  0.48835328  0.42270089  0.91173770    -0.19400
C174        C  0.48823075  0.44373748  0.87574741    -0.19400
C175        C  0.49106595  0.05189286  0.12193811    -0.19300
C176        C  0.49131237  0.07318937  0.08634471    -0.19300
C177        C  0.51636401  0.42229258  0.08819624    -0.20400
C178        C  0.51644088  0.44355838  0.12354392    -0.20400
C179        C  0.51384352  0.05244932  0.87236089    -0.20400
C180        C  0.51519250  0.07355993  0.90793086    -0.20400
C181        C  0.50524241  0.42247663  0.99944477    -0.15800
C182        C  0.50393164  0.49760360  0.87153931    -0.15800
C183        C  0.50571179  0.07340285  0.99741225    -0.15800
C184        C  0.50590916  0.49817753  0.12472293    -0.15800
H185        H  0.48096317  0.39948383  0.90700320     0.17200
H186        H  0.48066465  0.43981220  0.83822406     0.17200
H187        H  0.48484537  0.05583855  0.16006728     0.17200
H188        H  0.48529782  0.09662937  0.09203671     0.17200
H189        H  0.52033997  0.39872484  0.09405378     0.15400
H190        H  0.52054901  0.43956919  0.16174133     0.15400
H191        H  0.51773920  0.05644191  0.83397902     0.15400
H192        H  0.52027746  0.09698086  0.90208458     0.15400
H193        H  0.52067540  0.48084155  0.96867736     0.28700
H194        H  0.51908360  0.01435254  0.02602664     0.28700
N195        N  0.50430810  0.46592774  0.55189704    -0.34100
N196        N  0.49877904  0.02960797  0.55185711    -0.54600
N197        N  0.49655786  0.02947083  0.44403350    -0.34100
N198        N  0.50099128  0.46561717  0.44399982    -0.54600
C199        C  0.50005129  0.47049486  0.60036939     0.29500
C200        C  0.49859004  0.43667759  0.54377542     0.29500
C201        C  0.49938101  0.05890361  0.45239280     0.29500
C202        C  0.50181304  0.02509181  0.39558409     0.29500
C203        C  0.50043409  0.02554702  0.60034683     0.38100
C204        C  0.49668880  0.05913552  0.54393051     0.38100
C205        C  0.50124402  0.43612662  0.45219826     0.38100
C206        C  0.50043593  0.46956155  0.39545946     0.38100
C207        C  0.49298615  0.44359914  0.62325757    -0.19400
C208        C  0.49197333  0.42238957  0.58780098    -0.19400
C209        C  0.50551197  0.07345784  0.40854675    -0.19300
C210        C  0.50705178  0.05224814  0.37296213    -0.19300
C211        C  0.49929274  0.05272461  0.62335803    -0.20400
C212        C  0.49679131  0.07389975  0.58784496    -0.20400
C213        C  0.50131312  0.42122968  0.40838467    -0.20400
C214        C  0.50078528  0.44232593  0.37263892    -0.20400
C215        C  0.50172381  0.49811476  0.62487296    -0.15800
C216        C  0.49919303  0.42214061  0.49819710    -0.15800
C217        C  0.50050464  0.49729017  0.37124179    -0.15800
C218        C  0.49645298  0.07335101  0.49805998    -0.15800
H219        H  0.48822898  0.43964525  0.66156631     0.17200
H220        H  0.48648265  0.39903228  0.59391185     0.17200
H221        H  0.50901411  0.09700150  0.40266794     0.17200
H222        H  0.51196015  0.05641184  0.33472954     0.17200
H223        H  0.49991224  0.05691409  0.66177050     0.15400
H224        H  0.49569997  0.09755350  0.59379488     0.15400
H225        H  0.50122799  0.39755745  0.40265347     0.15400
H226        H  0.50060513  0.43804941  0.33423497     0.15400
H227        H  0.51368407  0.48128777  0.52586268     0.28700
H228        H  0.48814258  0.01378631  0.46989461     0.28700
C229        C  0.50328720  0.49729929  0.81827144    -0.16000
C230        C  0.50282320  0.49737853  0.77417345     0.08100
C231        C  0.50225425  0.49768606  0.72228370     0.10000
C232        C  0.50184265  0.49795544  0.67818422    -0.16800
C233        C  0.50482950  0.49837839  0.17796458    -0.16000
C234        C  0.50376939  0.49817816  0.22204413     0.08100
C235        C  0.50251054  0.49775360  0.27389298     0.10000
C236        C  0.50156604  0.49743905  0.31797438    -0.16800
C237        C  0.00123193  0.50000217  0.81999031    -0.16000
C238        C  0.00094909  0.49975993  0.77588323     0.08100
C239        C  0.00038829  0.49947212  0.72398632     0.10000
C240        C  0.99985863  0.49933764  0.67988653    -0.16800
C241        C  0.99926702  0.49956117  0.18028989    -0.16000
C242        C  0.99939569  0.49949525  0.22435512     0.08100
C243        C  0.99930812  0.49931863  0.27618879     0.10000
C244        C  0.99920925  0.49916150  0.32025493    -0.16800
C245        C  0.49330369  0.13230159  0.49753586    -0.10700
C246        C  0.49475842  0.10555948  0.49776060    -0.12300
C247        C  0.49264132  0.36352185  0.49936238    -0.10700
C248        C  0.49557468  0.39012246  0.49879214    -0.12300
C249        C  0.50696109  0.10556220  0.99778420    -0.10700
C250        C  0.50756160  0.13228514  0.99813996    -0.12300
C251        C  0.50559915  0.36364151  0.99900686    -0.10700
C252        C  0.50544335  0.39034220  0.99944649    -0.12300
C253        C  0.49581834  0.24689226  0.81499407    -0.16000
C254        C  0.49000129  0.24680413  0.77253707     0.08100
C255        C  0.48315733  0.24703763  0.72304030     0.10000
C256        C  0.47993473  0.24726827  0.68023636    -0.16800
C257        C  0.50366211  0.25019686  0.31551941    -0.16000
C258        C  0.50676827  0.25035872  0.27254291     0.08100
C259        C  0.50916054  0.24998839  0.22237757     0.10000
C260        C  0.50956043  0.24931993  0.17936023    -0.16800
C261        C  0.99197421  0.13394994  0.50050717    -0.10700
C262        C  0.99298716  0.10724759  0.50067982    -0.12300
C263        C  0.99350199  0.36501954  0.50007543    -0.10700
C264        C  0.99529384  0.39168643  0.50013700    -0.12300
C265        C  0.67234840  0.24961089  0.50774388    -0.16000
C266        C  0.71464976  0.25017791  0.50914080     0.08100
C267        C  0.76426796  0.25058141  0.50974891     0.10000
C268        C  0.80664727  0.25074574  0.50930351    -0.16800
C269        C  0.30694117  0.24990851  0.49003742    -0.16000
C270        C  0.26464685  0.25002652  0.48960691     0.08100
C271        C  0.21511521  0.24980108  0.49017041     0.10000
C272        C  0.17281463  0.24944259  0.49126353    -0.16800
C273        C  0.00174832  0.10779702  0.00104666    -0.10700
C274        C  0.00277348  0.13447762  0.00099688    -0.12300
C275        C  0.00258873  0.36551630  0.99900670    -0.10700
C276        C  0.00218944  0.39220287  0.99996355    -0.12300
C277        C  0.82186118  0.24981317  0.99226885    -0.16000
C278        C  0.77960297  0.24954264  0.99085829     0.08100
C279        C  0.73008539  0.24917644  0.98985508     0.10000
C280        C  0.68777607  0.24879489  0.98975433    -0.16800
C281        C  0.32169020  0.24901496  0.00414143    -0.16000
C282        C  0.27933592  0.24889766  0.00457204     0.08100
C283        C  0.22973374  0.24873631  0.00465229     0.10000
C284        C  0.18739373  0.24872652  0.00431587    -0.16800
C285        C  0.00018813  0.24905658  0.68167963    -0.16000
C286        C  0.00445228  0.24857696  0.72436882     0.08100
C287        C  0.00882797  0.24809475  0.77422318     0.10000
C288        C  0.01081041  0.24809904  0.81714494    -0.16800
C289        C  0.99206669  0.24981844  0.18177878    -0.16000
C290        C  0.98854552  0.24986978  0.22466660     0.08100
C291        C  0.98567417  0.25004420  0.27471375     0.10000
C292        C  0.98501076  0.25013476  0.31768376    -0.16800
O293        O  0.98035788  0.73175111  0.89043781    -0.76000
C294        C  0.99981068  0.66592773  0.00037242     0.85100
O295        O  0.88527124  0.76752225  0.02160898    -0.77100
O296        O  0.01833970  0.73126487  0.11202361    -0.78600
O297        O  0.11213769  0.76713659  0.97946548    -0.78400
O298        O  0.03511170  0.76678142  0.89119262    -0.77000
Zn299      Zn  0.96195001  0.72381235  0.95879860     1.55700
O300        O  0.10882347  0.73092598  0.03411439    -0.78400
Cd301      Cd  0.04258537  0.77524502  0.96290894     1.59700
Cd302      Cd  0.95461880  0.77538359  0.03746059     1.59600
O303        O  0.02851841  0.81985676  0.97461560    -0.78400
O304        O  0.99870065  0.74907686  0.99971895    -1.88900
Cd305      Cd  0.03757566  0.72312693  0.04196831     1.59900
O306        O  0.96743661  0.81998603  0.02635300    -0.78300
O307        O  0.02690967  0.67871909  0.02931568    -0.77000
C308        C  0.86715385  0.74934954  0.99266862     0.85600
C309        C  0.00907459  0.74892237  0.86915101     0.85200
O310        O  0.97348553  0.68032015  0.97193028    -0.75900
C311        C  0.13193018  0.74903033  0.00801734     0.86000
O312        O  0.89205427  0.73168965  0.96675666    -0.76000
C313        C  0.99786141  0.83350735  0.00060671     0.86200
C314        C  0.98874667  0.74887438  0.13205190     0.86500
O315        O  0.96266755  0.76673106  0.10902946    -0.78400
O316        O  0.02525066  0.81839726  0.52651166    -0.76000
C317        C  0.00470981  0.74824111  0.63145194     0.85100
O318        O  0.10545380  0.73106105  0.46363878    -0.77100
O319        O  0.96703077  0.67924343  0.52937116    -0.78600
O320        O  0.88196275  0.76976228  0.48409944    -0.78400
O321        O  0.96661552  0.82068170  0.47478726    -0.77000
Zn322      Zn  0.03795453  0.77472180  0.53682013     1.55700
O323        O  0.88454167  0.73313321  0.53802018    -0.78400
Cd324      Cd  0.95188594  0.77634676  0.46513722     1.59700
Cd325      Cd  0.03421690  0.72346574  0.45828418     1.59600
O326        O  0.95987597  0.76702146  0.39338724    -0.78400
O327        O  0.99545348  0.74992660  0.50146925    -1.88900
Cd328      Cd  0.95591386  0.72392674  0.54369494     1.59900
O329        O  0.01590971  0.73172791  0.38881824    -0.78300
O330        O  0.97476501  0.73118447  0.61326915    -0.77000
C331        C  0.12729942  0.74936880  0.48936506     0.85600
C332        C  0.99679058  0.83314303  0.50079554     0.85200
O333        O  0.03027591  0.76563414  0.60663565    -0.75900
C334        C  0.86172767  0.75177388  0.51285881     0.86000
O335        O  0.10599105  0.76704581  0.51829447    -0.76000
C336        C  0.98632345  0.74916995  0.36964220     0.86200
C337        C  0.99495493  0.66553371  0.50038825     0.86500
O338        O  0.02287091  0.67898982  0.47169315    -0.78400
O339        O  0.52803028  0.81719990  0.02286821    -0.76000
C340        C  0.50624753  0.74770431  0.12791609     0.85100
O341        O  0.61100713  0.73023735  0.96131876    -0.77100
O342        O  0.47329704  0.67763559  0.02589053    -0.78600
O343        O  0.38711474  0.76713847  0.97794423    -0.78400
O344        O  0.46997528  0.81885786  0.97041698    -0.75400
Zn345      Zn  0.54161495  0.77359603  0.03349167     1.55700
O346        O  0.38967005  0.73040699  0.03166581    -0.78400
Cd347      Cd  0.45701815  0.77435262  0.96008829     1.59700
Cd348      Cd  0.54009445  0.72207178  0.95475261     1.59600
O349        O  0.46611279  0.76477724  0.88846352    -0.78400
O350        O  0.50041093  0.74837884  0.99737268    -1.88900
Cd351      Cd  0.46084839  0.72220824  0.03926938     1.59900
O352        O  0.52226090  0.72953772  0.88486254    -0.78300
O353        O  0.47713031  0.73023984  0.10936398    -0.77000
C354        C  0.63218710  0.74836198  0.98798998     0.85600
C355        C  0.49931217  0.83165163  0.99700029     0.85200
O356        O  0.53219055  0.76496651  0.10329093    -0.75900
C357        C  0.36689857  0.74890498  0.00626814     0.86000
O358        O  0.61018460  0.76589528  0.01668123    -0.76000
C359        C  0.49261553  0.74671542  0.86518815     0.86200
C360        C  0.50149598  0.66402112  0.99710519     0.86500
O361        O  0.52934056  0.67755035  0.96842874    -0.78400
O362        O  0.51933617  0.81688326  0.52819262    -0.76000
C363        C  0.48256359  0.74631223  0.62796154     0.85100
O364        O  0.60997565  0.73060129  0.47913352    -0.77100
O365        O  0.46504890  0.67739740  0.52079398    -0.78600
O366        O  0.38632675  0.76791061  0.46229270    -0.78400
O367        O  0.47063836  0.81884298  0.46652459    -0.77000
Zn368      Zn  0.53073166  0.77328997  0.54043250     1.55700
O369        O  0.38122883  0.73058404  0.51479739    -0.78400
Cd370      Cd  0.45810282  0.77448817  0.45459308     1.59700
Cd371      Cd  0.54118106  0.72230929  0.46150915     1.59600
O372        O  0.47789248  0.76530743  0.38489389    -0.78400
O373        O  0.49547466  0.74830705  0.49782869    -1.88900
Cd374      Cd  0.45031523  0.72188631  0.53259208     1.59900
O375        O  0.53462041  0.73057641  0.38947735    -0.78300
O376        O  0.45635023  0.72915146  0.60475511    -0.77000
C377        C  0.62689178  0.74891774  0.50861817     0.85600
C378        C  0.49571765  0.83146128  0.49757891     0.85200
O379        O  0.51147015  0.76386909  0.60789016    -0.75900
C380        C  0.36232424  0.74959807  0.48714373     0.86000
O381        O  0.60088014  0.76621791  0.53399759    -0.76000
C382        C  0.50828394  0.74788205  0.36564353     0.86200
C383        C  0.49761639  0.66398988  0.49702309     0.86500
O384        O  0.52917007  0.67771317  0.47313110    -0.78400
N385        N  0.00209354  0.96816808  0.94734248    -0.34100
N386        N  0.99930859  0.96783490  0.05522941    -0.54600
N387        N  0.99417773  0.53157037  0.05400254    -0.34100
N388        N  0.99850137  0.53184135  0.94591758    -0.54600
C389        C  0.99789563  0.93878506  0.95574148     0.29500
C390        C  0.99858841  0.97273066  0.89896245     0.29500
C391        C  0.99765816  0.52715661  0.10242337     0.29500
C392        C  0.99696522  0.56101013  0.04559634     0.29500
C393        C  0.99914280  0.93832561  0.04727296     0.38100
C394        C  0.99817365  0.97185140  0.10375879     0.38100
C395        C  0.00135172  0.52791004  0.89738455     0.38100
C396        C  0.99771128  0.56133997  0.95394930     0.38100
C397        C  0.99275499  0.92441127  0.91193195    -0.19400
C398        C  0.99321100  0.94569758  0.87637090    -0.19400
C399        C  0.00127280  0.55432558  0.12503908    -0.19300
C400        C  0.00085809  0.57556366  0.08943871    -0.19300
C401        C  0.99810686  0.92350180  0.09122569    -0.20400
C402        C  0.99747085  0.94464672  0.12680180    -0.20400
C403        C  0.00207528  0.55512134  0.87442548    -0.20400
C404        C  0.99969437  0.57621461  0.91004709    -0.20400
C405        C  0.99869312  0.92423260  0.00140365    -0.15800
C406        C  0.99992490  0.00041571  0.87427095    -0.15800
C407        C  0.99678839  0.57542573  0.99983672    -0.15800
C408        C  0.99897406  0.99958299  0.12777950    -0.15800
H409        H  0.98869600  0.90093741  0.90604642     0.17200
H410        H  0.98953317  0.94166208  0.83817284     0.17200
H411        H  0.00473487  0.55847391  0.16323344     0.17200
H412        H  0.00386595  0.59911528  0.09529835     0.17200
H413        H  0.99754999  0.89984519  0.09718258     0.15400
H414        H  0.99674230  0.94041471  0.16525418     0.15400
H415        H  0.00387709  0.55938276  0.83599901     0.15400
H416        H  0.99981158  0.59988321  0.90415844     0.15400
H417        H  0.00994756  0.98368798  0.97312020     0.28700
H418        H  0.98788192  0.51584419  0.02803437     0.28700
N419        N  0.00477851  0.96760958  0.55438046    -0.34100
N420        N  0.99810626  0.53115741  0.55393157    -0.54600
N421        N  0.00040305  0.53109234  0.44614996    -0.34100
N422        N  0.00026680  0.96732712  0.44665480    -0.54600
C423        C  0.99953767  0.97211982  0.60280697     0.29500
C424        C  0.00003805  0.93827614  0.54609376     0.29500
C425        C  0.99307138  0.56025769  0.45495526     0.29500
C426        C  0.99420811  0.52646694  0.39824124     0.29500
C427        C  0.00306702  0.52699693  0.60210605     0.38100
C428        C  0.00215061  0.56051793  0.54552100     0.38100
C429        C  0.00309296  0.93784968  0.45460357     0.38100
C430        C  0.99948058  0.97137266  0.39815192     0.38100
C431        C  0.99277356  0.94513384  0.62550409    -0.19400
C432        C  0.99305281  0.92390580  0.58997874    -0.19400
C433        C  0.98288350  0.57445736  0.41185038    -0.19300
C434        C  0.98363583  0.55322461  0.37624774    -0.19300
C435        C  0.00967379  0.55394441  0.62445343    -0.20400
C436        C  0.00908389  0.57509813  0.58879770    -0.20400
C437        C  0.00437510  0.92306184  0.41067832    -0.20400
C438        C  0.00205784  0.94421116  0.37511331    -0.20400
C439        C  0.00053997  0.99973912  0.62745179    -0.15800
C440        C  0.00205777  0.92372672  0.50049454    -0.15800
C441        C  0.99719718  0.99913360  0.37412073    -0.15800
C442        C  0.99732910  0.57480577  0.50011717    -0.15800
H443        H  0.98754580  0.94111771  0.66373913     0.17200
H444        H  0.98816895  0.90047626  0.59592893     0.17200
H445        H  0.97584205  0.59780064  0.40643450     0.17200
H446        H  0.97717567  0.55711552  0.33841573     0.17200
H447        H  0.01403618  0.55801301  0.66254793     0.15400
H448        H  0.01295649  0.59862512  0.59427342     0.15400
H449        H  0.00623899  0.89941509  0.40475454     0.15400
H450        H  0.00221197  0.94001339  0.33667682     0.15400
H451        H  0.01454220  0.98307816  0.52860539     0.28700
H452        H  0.01325208  0.51597599  0.47078399     0.28700
N453        N  0.50406064  0.96600534  0.94395888    -0.34100
N454        N  0.50307495  0.96586526  0.05166404    -0.54600
N455        N  0.50747575  0.52996641  0.05145845    -0.34100
N456        N  0.50282105  0.52956465  0.94372227    -0.54600
C457        C  0.49623233  0.93705214  0.95315834     0.29500
C458        C  0.49630497  0.97085884  0.89632580     0.29500
C459        C  0.50117134  0.52553071  0.09972628     0.29500
C460        C  0.49933427  0.55900285  0.04246063     0.29500
C461        C  0.50789679  0.93649424  0.04323524     0.38100
C462        C  0.50861145  0.96993512  0.09972315     0.38100
C463        C  0.50776467  0.52520598  0.89538496     0.38100
C464        C  0.50756660  0.55890465  0.95146541     0.38100
C465        C  0.48399742  0.92321015  0.91060598    -0.19400
C466        C  0.48407739  0.94445721  0.87491939    -0.19400
C467        C  0.48995570  0.55230236  0.12170169    -0.19300
C468        C  0.48871766  0.57333309  0.08574521    -0.19300
C469        C  0.51610108  0.92181810  0.08635924    -0.20400
C470        C  0.51645113  0.94292604  0.12198970    -0.20400
C471        C  0.51493154  0.55199741  0.87230047    -0.20400
C472        C  0.51480011  0.57327325  0.90765600    -0.20400
C473        C  0.50207108  0.92231768  0.99807463    -0.15800
C474        C  0.50149127  0.99814512  0.87122758    -0.15800
C475        C  0.50326522  0.57336061  0.99687938    -0.15800
C476        C  0.50469891  0.99748478  0.12415571    -0.15800
H477        H  0.47606775  0.90009061  0.90561003     0.17200
H478        H  0.47611315  0.94081282  0.83741404     0.17200
H479        H  0.48310267  0.55630204  0.15971637     0.17200
H480        H  0.48088671  0.59661602  0.09100841     0.17200
H481        H  0.52081191  0.89825804  0.09176621     0.15400
H482        H  0.52162953  0.93880879  0.15999084     0.15400
H483        H  0.51960407  0.55586035  0.83395849     0.15400
H484        H  0.51934607  0.59672910  0.90167559     0.15400
H485        H  0.51850407  0.98067296  0.96793629     0.28700
H486        H  0.52074635  0.51485907  0.02646976     0.28700
N487        N  0.50511111  0.96573549  0.55127675    -0.34100
N488        N  0.50004208  0.52976587  0.55207786    -0.54600
N489        N  0.49686578  0.52946905  0.44421627    -0.34100
N490        N  0.50291935  0.96561179  0.44339155    -0.54600
C491        C  0.50048722  0.97015644  0.59975977     0.29500
C492        C  0.50052108  0.93641041  0.54292081     0.29500
C493        C  0.50103693  0.55883246  0.45233961     0.29500
C494        C  0.50122917  0.52494958  0.39574864     0.29500
C495        C  0.50147447  0.52582952  0.60060058     0.38100
C496        C  0.49908777  0.55927172  0.54391092     0.38100
C497        C  0.50411817  0.93609611  0.45136546     0.38100
C498        C  0.50279168  0.96967563  0.39486662     0.38100
C499        C  0.49420365  0.94310916  0.62243383    -0.19400
C500        C  0.49411752  0.92194562  0.58682256    -0.19400
C501        C  0.50696949  0.57323581  0.40832812    -0.19300
C502        C  0.50705046  0.55197858  0.37286517    -0.19300
C503        C  0.50116235  0.55306099  0.62340597    -0.20400
C504        C  0.49959038  0.57415386  0.58771015    -0.20400
C505        C  0.50521543  0.92131385  0.40743242    -0.20400
C506        C  0.50437229  0.94249785  0.37184066    -0.20400
C507        C  0.50130937  0.99776464  0.62444846    -0.15800
C508        C  0.50218035  0.92195417  0.49724531    -0.15800
C509        C  0.50210748  0.99746738  0.37083774    -0.15800
C510        C  0.49946114  0.57334590  0.49794369    -0.15800
H511        H  0.48946812  0.93901064  0.66070436     0.17200
H512        H  0.48948542  0.89849084  0.59274810     0.17200
H513        H  0.51128794  0.59670168  0.40224842     0.17200
H514        H  0.51149272  0.55601952  0.33454559     0.17200
H515        H  0.50183370  0.55733931  0.66178903     0.15400
H516        H  0.49933256  0.59782589  0.59346876     0.15400
H517        H  0.50606442  0.89765471  0.40151179     0.15400
H518        H  0.50483887  0.93831183  0.33339587     0.15400
H519        H  0.51410400  0.98130265  0.52540794     0.28700
H520        H  0.48837350  0.51396928  0.47031154     0.28700
C521        C  0.50093323  0.99793763  0.81794464    -0.16000
C522        C  0.50086614  0.99774991  0.77382864     0.08100
C523        C  0.50093683  0.99758649  0.72190672     0.10000
C524        C  0.50102418  0.99756913  0.67778302    -0.16800
C525        C  0.50410441  0.99751902  0.17742950    -0.16000
C526        C  0.50368399  0.99757898  0.22153208     0.08100
C527        C  0.50333625  0.99766409  0.27342251     0.10000
C528        C  0.50299067  0.99767120  0.31752934    -0.16800
C529        C  0.99957901  0.00031191  0.82095221    -0.16000
C530        C  0.99952841  0.00012230  0.77683318     0.08100
C531        C  0.99966770  0.99982852  0.72491124     0.10000
C532        C  0.99996095  0.99965103  0.68078610    -0.16800
C533        C  0.99911616  0.99967941  0.18098628    -0.16000
C534        C  0.99878811  0.99965511  0.22503875     0.08100
C535        C  0.99818556  0.99950178  0.27684596     0.10000
C536        C  0.99770041  0.99931738  0.32089957    -0.16800
C537        C  0.49880646  0.63220484  0.49718854    -0.10700
C538        C  0.49944843  0.60549617  0.49747053    -0.12300
C539        C  0.49783847  0.86319455  0.49776162    -0.10700
C540        C  0.49995094  0.88984939  0.49753371    -0.12300
C541        C  0.50231131  0.60551224  0.99677107    -0.10700
C542        C  0.50186394  0.63222609  0.99691334    -0.12300
C543        C  0.50016175  0.86345236  0.99767125    -0.10700
C544        C  0.50098186  0.89016520  0.99791705    -0.12300
C545        C  0.48863004  0.74553852  0.81452628    -0.16000
C546        C  0.48495116  0.74483969  0.77178463     0.08100
C547        C  0.48142115  0.74481939  0.72184845     0.10000
C548        C  0.48038163  0.74541704  0.67888828    -0.16800
C549        C  0.51269218  0.74764589  0.31474781    -0.16000
C550        C  0.51411651  0.74767942  0.27170470     0.08100
C551        C  0.51289303  0.74782308  0.22155500     0.10000
C552        C  0.51015333  0.74786027  0.17867162    -0.16800
C553        C  0.99517177  0.63371234  0.50012242    -0.10700
C554        C  0.99595616  0.60698214  0.49994300    -0.12300
C555        C  0.99896458  0.86489670  0.50096423    -0.10700
C556        C  0.00068736  0.89157840  0.50084487    -0.12300
C557        C  0.67702158  0.75023608  0.51308968    -0.16000
C558        C  0.71923498  0.75121226  0.51563235     0.08100
C559        C  0.76883821  0.75197594  0.51691321     0.10000
C560        C  0.81124171  0.75216108  0.51620854    -0.16800
C561        C  0.31200721  0.75048359  0.48427710    -0.16000
C562        C  0.26966302  0.75076719  0.48343424     0.08100
C563        C  0.22002955  0.75055232  0.48410536     0.10000
C564        C  0.17768196  0.75005044  0.48591152    -0.16800
C565        C  0.99771957  0.60753203  0.99997591    -0.10700
C566        C  0.99871815  0.63420053  0.00000224    -0.12300
C567        C  0.99767207  0.86533005  0.00092991    -0.10700
C568        C  0.99788390  0.89205698  0.00114759    -0.12300
C569        C  0.81689855  0.74878611  0.98925153    -0.16000
C570        C  0.77461887  0.74867296  0.98724461     0.08100
C571        C  0.72501653  0.74877816  0.98603870     0.10000
C572        C  0.68264229  0.74877139  0.98620184    -0.16800
C573        C  0.31650257  0.74907739  0.00938253    -0.16000
C574        C  0.27415119  0.74907755  0.01097809     0.08100
C575        C  0.22454753  0.74899436  0.01145864     0.10000
C576        C  0.18223143  0.74895236  0.01057365    -0.16800
C577        C  0.00961853  0.74794967  0.68208004    -0.16000
C578        C  0.01223975  0.74782130  0.72496813     0.08100
C579        C  0.01302494  0.74792615  0.77513363     0.10000
C580        C  0.01192719  0.74826112  0.81817706    -0.16800
C581        C  0.98476447  0.74865216  0.18288785    -0.16000
C582        C  0.98251228  0.74855160  0.22586152     0.08100
C583        C  0.98177313  0.74861436  0.27598292     0.10000
C584        C  0.98297216  0.74882324  0.31892224    -0.16800
loop_ 
_geom_bond_atom_site_label_1 
_geom_bond_atom_site_label_2 
_geom_bond_distance 
_geom_bond_site_symmetry_2 
_ccdc_geom_bond_type 
O1           C17   1.270   1_655  A
O1           Zn7   1.984       .  S
C2           O18   1.272   1_454  A
C2           O15   1.271       .  A
C2          C274   1.436       .  S
O3           C16   1.271   1_554  A
O3          Cd10   2.062       .  S
O4           C22   1.271   1_455  A
O4          Cd13   2.041       .  S
O5           C19   1.273   1_556  A
O5           Cd9   2.071       .  S
O6           C17   1.271       .  A
O6           Cd9   2.042       .  S
Zn7          O18   2.022       .  S
Zn7          O20   2.021       .  S
Zn7          O12   1.941   1_655  S
O8           C19   1.273       .  A
O8          Cd13   2.073       .  S
Cd9          O11   2.078       .  S
Cd9          O12   1.997       .  S
Cd10         O14   2.066       .  S
Cd10         O23   2.032       .  S
Cd10         O12   1.994   1_654  S
O11          C21   1.273       .  A
O12         Cd13   1.997   1_556  S
Cd13         O15   2.069       .  S
O14          C21   1.271   1_654  A
C16          O20   1.272       .  A
C16         C277   1.435       .  S
C17         C288   1.413       .  S
C19         C284   1.436       .  S
C21         C275   1.436       .  S
C22          O23   1.269       .  A
C22         C289   1.410       .  S
O24          C40   1.272   1_455  A
O24         Zn30   2.021       .  S
C25          O41   1.270   1_655  A
C25          O38   1.271       .  A
C25         C285   1.413   1_655  S
O26          C39   1.271       .  A
O26         Cd33   2.066       .  S
O27          C45   1.273       .  A
O27         Cd36   2.075       .  S
O28          C42   1.273       .  A
O28         Cd32   2.073       .  S
O29          C40   1.272       .  A
O29         Cd32   2.072       .  S
Zn30         O41   1.983       .  S
Zn30         O43   2.016       .  S
Zn30         O35   1.941   1_455  S
O31          C42   1.273       .  A
O31         Cd36   2.075       .  S
Cd32         O34   2.039       .  S
Cd32         O35   1.997       .  S
Cd33         O37   2.037       .  S
Cd33         O46   2.070       .  S
Cd33         O35   1.996   1_455  S
O34          C44   1.270       .  A
O35         Cd36   1.997       .  S
Cd36         O38   2.041       .  S
O37          C44   1.270   1_455  A
C39          O43   1.271       .  A
C39         C272   1.434       .  S
C40         C263   1.437       .  S
C42         C268   1.438       .  S
C44         C292   1.410       .  S
C45          O46   1.272   1_655  A
C45         C261   1.437       .  S
O47          C63   1.272   1_554  A
O47         Zn53   2.027       .  S
C48          O64   1.270       .  A
C48          O61   1.271       .  A
C48         C260   1.413       .  S
O49          C62   1.272       .  A
O49         Cd56   2.070       .  S
O50          C68   1.273   1_554  A
O50         Cd59   2.075       .  S
O51          C65   1.272   1_556  A
O51         Cd55   2.068       .  S
O52          C63   1.271       .  A
O52         Cd55   2.066       .  S
Zn53         O64   1.986       .  S
Zn53         O66   2.019       .  S
Zn53         O58   1.942   1_554  S
O54          C65   1.273       .  A
O54         Cd59   2.075       .  S
Cd55         O57   2.033       .  S
Cd55         O58   1.995       .  S
Cd56         O60   2.048       .  S
Cd56         O69   2.077       .  S
Cd56         O58   1.999       .  S
O57          C67   1.269       .  A
O58         Cd59   1.997   1_556  S
Cd59         O61   2.041       .  S
O60          C67   1.272       .  A
C62          O66   1.272   1_556  A
C62         C280   1.435       .  S
C63         C251   1.437       .  S
C65         C281   1.436       .  S
C67         C253   1.412       .  S
C68          O69   1.273       .  A
C68         C250   1.439       .  S
O70          C86   1.272       .  A
O70         Zn76   2.021       .  S
C71          O87   1.270       .  A
C71          O84   1.271       .  A
C71         C256   1.412       .  S
O72          C85   1.272       .  A
O72         Cd79   2.069       .  S
O73          C91   1.273       .  A
O73         Cd82   2.078       .  S
O74          C88   1.272       .  A
O74         Cd78   2.070       .  S
O75          C86   1.271       .  A
O75         Cd78   2.068       .  S
Zn76         O87   1.982       .  S
Zn76         O89   2.024       .  S
Zn76         O81   1.941       .  S
O77          C88   1.272       .  A
O77         Cd82   2.069       .  S
Cd78         O80   2.041       .  S
Cd78         O81   1.998       .  S
Cd79         O83   2.042       .  S
Cd79         O92   2.077       .  S
Cd79         O81   1.996       .  S
O80          C90   1.271       .  A
O81         Cd82   1.999       .  S
Cd82         O84   2.042       .  S
O83          C90   1.271       .  A
C85          O89   1.272       .  A
C85         C265   1.438       .  S
C86         C247   1.436       .  S
C88         C269   1.434       .  S
C90         C257   1.413       .  S
C91          O92   1.273       .  A
C91         C245   1.440       .  S
N93          C98   1.362   1_455  A
N93          C97   1.355   1_455  A
N93         H125   1.035       .  S
N94         C101   1.352       .  A
N94         C102   1.357       .  A
N95         C100   1.354   1_655  A
N95          C99   1.361   1_655  A
N95         H126   1.033       .  S
N96         C103   1.358   1_655  A
N96         C104   1.353       .  A
C97         C105   1.390       .  A
C97         C113   1.424   1_656  A
C98         C114   1.424   1_655  A
C98         C106   1.386       .  A
C99         C107   1.387       .  A
C99         C408   1.425   1_445  A
C100        C115   1.425       .  A
C100        C108   1.390       .  A
C101        C113   1.422       .  A
C101        C109   1.389       .  A
C102        C116   1.421   1_455  A
C102        C110   1.385       .  A
C103        C111   1.385       .  A
C103        C406   1.422   1_455  A
C104        C112   1.389   1_655  A
C104        C115   1.423   1_656  A
C105        C106   1.375       .  A
C105        H117   1.082       .  S
C106        H118   1.082       .  S
C107        C108   1.376       .  A
C107        H119   1.082       .  S
C108        H120   1.082       .  S
C109        C110   1.374       .  A
C109        H121   1.082       .  S
C110        H122   1.082       .  S
C111        C112   1.374       .  A
C111        H123   1.082       .  S
C112        H124   1.082       .  S
C113        C276   1.452   1_554  S
C114        C237   1.478       .  S
C114        C395   1.420       .  A
C115        C273   1.453       .  S
C116        C241   1.476       .  S
C116        C391   1.425       .  A
N127        C132   1.354   1_455  A
N127        C131   1.361   1_455  A
N127        H159   1.035       .  S
N128        C135   1.357   1_655  A
N128        C136   1.353       .  A
N129        C134   1.361       .  A
N129        C133   1.354       .  A
N129        H160   1.033       .  S
N130        C137   1.353   1_655  A
N130        C138   1.358   1_655  A
C131        C139   1.386       .  A
C131        C147   1.423       .  A
C132        C148   1.423       .  A
C132        C140   1.390       .  A
C133        C141   1.390       .  A
C133        C150   1.425       .  A
C134        C142   1.387       .  A
C134        C441   1.425   1_545  A
C135        C143   1.385       .  A
C135        C439   1.421   1_545  A
C136        C150   1.423       .  A
C136        C144   1.389       .  A
C137        C145   1.389       .  A
C137        C148   1.421   1_455  A
C138        C146   1.385       .  A
C138        C149   1.420   1_455  A
C139        C140   1.378       .  A
C139        H151   1.082       .  S
C140        H152   1.082       .  S
C141        C142   1.376       .  A
C141        H153   1.082       .  S
C142        H154   1.082   1_655  S
C143        C144   1.374   1_455  A
C143        H155   1.082       .  S
C144        H156   1.082       .  S
C145        C146   1.375       .  A
C145        H157   1.082       .  S
C146        H158   1.082       .  S
C147        C240   1.477       .  S
C147        C427   1.421   1_655  A
C148        C264   1.453       .  S
C149        C244   1.475       .  S
C149        C426   1.423       .  A
C150        C262   1.453       .  S
N161        C166   1.361       .  A
N161        C165   1.354       .  A
N161        H193   1.035       .  S
N162        C169   1.353       .  A
N162        C170   1.358       .  A
N163        C168   1.353       .  A
N163        C167   1.361       .  A
N163        H194   1.035       .  S
N164        C171   1.359       .  A
N164        C172   1.354       .  A
C165        C173   1.390       .  A
C165        C181   1.423       .  A
C166        C182   1.423       .  A
C166        C174   1.386       .  A
C167        C175   1.386       .  A
C167        C476   1.423   1_545  A
C168        C183   1.423   1_554  A
C168        C176   1.390       .  A
C169        C181   1.421   1_554  A
C169        C177   1.389       .  A
C170        C184   1.420       .  A
C170        C178   1.385       .  A
C171        C179   1.385       .  A
C171        C474   1.422   1_545  A
C172        C180   1.389       .  A
C172        C183   1.423       .  A
C173        C174   1.377       .  A
C173        H185   1.082       .  S
C174        H186   1.082       .  S
C175        C176   1.377       .  A
C175        H187   1.082       .  S
C176        H188   1.082       .  S
C177        C178   1.374       .  A
C177        H189   1.082       .  S
C178        H190   1.082       .  S
C179        C180   1.375       .  A
C179        H191   1.082       .  S
C180        H192   1.082       .  S
C181        C252   1.453       .  S
C182        C229   1.477       .  S
C182        C463   1.420       .  A
C183        C249   1.455       .  S
C184        C233   1.475       .  S
C184        C459   1.423       .  A
N195        C200   1.355       .  A
N195        C199   1.362       .  A
N195        H227   1.034       .  S
N196        C203   1.358       .  A
N196        C204   1.353       .  A
N197        C202   1.362       .  A
N197        C201   1.355       .  A
N197        H228   1.034       .  S
N198        C205   1.352       .  A
N198        C206   1.357       .  A
C199        C207   1.386       .  A
C199        C215   1.424       .  A
C200        C216   1.425       .  A
C200        C208   1.390       .  A
C201        C209   1.390       .  A
C201        C218   1.426       .  A
C202        C210   1.386       .  A
C202        C509   1.426   1_545  A
C203        C211   1.385       .  A
C203        C507   1.422   1_545  A
C204        C218   1.424       .  A
C204        C212   1.389       .  A
C205        C213   1.390       .  A
C205        C216   1.423       .  A
C206        C214   1.385       .  A
C206        C217   1.421       .  A
C207        C208   1.375       .  A
C207        H219   1.082       .  S
C208        H220   1.082       .  S
C209        C210   1.376       .  A
C209        H221   1.082       .  S
C210        H222   1.082       .  S
C211        C212   1.374       .  A
C211        H223   1.082       .  S
C212        H224   1.082       .  S
C213        C214   1.374       .  A
C213        H225   1.082       .  S
C214        H226   1.082       .  S
C215        C232   1.478       .  S
C215        C495   1.421       .  A
C216        C248   1.453       .  S
C217        C236   1.476       .  S
C217        C494   1.425       .  A
C218        C246   1.456       .  S
C229        C230   1.223       .  T
C230        C231   1.439       .  S
C231        C232   1.223       .  T
C233        C234   1.222       .  T
C234        C235   1.437       .  S
C235        C236   1.222       .  T
C237        C238   1.223       .  T
C238        C239   1.439       .  S
C239        C240   1.223   1_455  T
C241        C242   1.221       .  T
C242        C243   1.437       .  S
C243        C244   1.221       .  T
C245        C246   1.209       .  T
C247        C248   1.207       .  T
C249        C250   1.209       .  T
C251        C252   1.207       .  T
C253        C254   1.192       .  T
C254        C255   1.390       .  S
C255        C256   1.192       .  T
C257        C258   1.193       .  T
C258        C259   1.391       .  S
C259        C260   1.193       .  T
C261        C262   1.207       .  T
C263        C264   1.208       .  T
C265        C266   1.207       .  T
C266        C267   1.414       .  S
C267        C268   1.207       .  T
C269        C270   1.205       .  T
C270        C271   1.411       .  S
C271        C272   1.205       .  T
C273        C274   1.207       .  T
C275        C276   1.207       .  T
C277        C278   1.205       .  T
C278        C279   1.412       .  S
C279        C280   1.206       .  T
C281        C282   1.206       .  T
C282        C283   1.413       .  S
C283        C284   1.206       .  T
C285        C286   1.192       .  T
C286        C287   1.390       .  S
C287        C288   1.192       .  T
C289        C290   1.191       .  T
C290        C291   1.388       .  S
C291        C292   1.191       .  T
O293        C309   1.271   1_655  A
O293       Zn299   1.988       .  S
C294        O310   1.272   1_554  A
C294        O307   1.271   1_655  A
C294        C566   1.435       .  S
O295        C308   1.272   1_554  A
O295       Cd302   2.069       .  S
O296        C314   1.270   1_455  A
O296       Cd305   2.038       .  S
O297        C311   1.272   1_556  A
O297       Cd301   2.071       .  S
O298        C309   1.271       .  A
O298       Cd301   2.041       .  S
Zn299       O310   2.023       .  S
Zn299       O312   2.025       .  S
Zn299       O304   1.944       .  S
O300        C311   1.272       .  A
O300       Cd305   2.071       .  S
Cd301       O303   2.075       .  S
Cd301       O304   1.996   1_455  S
Cd302       O306   2.076       .  S
Cd302       O315   2.039       .  S
Cd302       O304   1.997   1_554  S
O303        C313   1.273   1_456  A
O304       Cd305   1.998   1_656  S
Cd305       O307   2.067       .  S
O306        C313   1.273       .  A
C308        O312   1.272       .  A
C308        C569   1.437       .  S
C309        C580   1.414       .  S
C311        C576   1.436       .  S
C313        C567   1.439       .  S
C314        O315   1.270       .  A
C314        C581   1.411       .  S
O316        C332   1.272   1_455  A
O316       Zn322   2.023       .  S
C317        O333   1.271       .  A
C317        O330   1.271   1_455  A
C317        C577   1.413       .  S
O318        C331   1.272       .  A
O318       Cd325   2.071       .  S
O319        C337   1.273       .  A
O319       Cd328   2.078       .  S
O320        C334   1.273       .  A
O320       Cd324   2.074       .  S
O321        C332   1.272       .  A
O321       Cd324   2.073       .  S
Zn322       O333   1.986       .  S
Zn322       O335   2.019       .  S
Zn322       O327   1.944   1_455  S
O323        C334   1.273       .  A
O323       Cd328   2.079       .  S
Cd324       O326   2.041       .  S
Cd324       O327   1.998       .  S
Cd325       O329   2.039       .  S
Cd325       O338   2.073       .  S
Cd325       O327   1.998   1_455  S
O326        C336   1.270       .  A
O327       Cd328   1.999       .  S
Cd328       O330   2.042       .  S
O329        C336   1.270   1_455  A
C331        O335   1.271       .  A
C331        C564   1.437       .  S
C332        C555   1.438       .  S
C334        C560   1.439       .  S
C336        C584   1.411       .  S
C337        O338   1.272   1_655  A
C337        C553   1.439       .  S
O339        C355   1.273   1_554  A
O339       Zn345   2.026       .  S
C340        O356   1.270       .  A
C340        O353   1.271       .  A
C340        C552   1.414       .  S
O341        C354   1.272       .  A
O341       Cd348   2.071       .  S
O342        C360   1.273   1_554  A
O342       Cd351   2.074       .  S
O343        C357   1.272   1_556  A
O343       Cd347   2.071       .  S
O344        C355   1.272       .  A
O344       Cd347   2.073       .  S
Zn345       O356   1.986       .  S
Zn345       O358   2.023       .  S
Zn345       O350   1.943   1_554  S
O346        C357   1.272       .  A
O346       Cd351   2.071       .  S
Cd347       O349   2.043       .  S
Cd347       O350   1.997       .  S
Cd348       O352   2.040       .  S
Cd348       O361   2.074       .  S
Cd348       O350   1.998       .  S
O349        C359   1.271       .  A
O350       Cd351   1.999   1_556  S
Cd351       O353   2.042       .  S
O352        C359   1.270       .  A
C354        O358   1.272   1_556  A
C354        C572   1.437       .  S
C355        C543   1.439       .  S
C357        C573   1.436       .  S
C359        C545   1.413       .  S
C360        O361   1.272       .  A
C360        C542   1.437       .  S
O362        C378   1.272       .  A
O362       Zn368   2.022       .  S
C363        O379   1.271       .  A
C363        O376   1.270       .  A
C363        C548   1.412       .  S
O364        C377   1.272       .  A
O364       Cd371   2.070       .  S
O365        C383   1.273       .  A
O365       Cd374   2.074       .  S
O366        C380   1.273       .  A
O366       Cd370   2.076       .  S
O367        C378   1.272       .  A
O367       Cd370   2.070       .  S
Zn368       O379   1.984       .  S
Zn368       O381   2.023       .  S
Zn368       O373   1.941       .  S
O369        C380   1.273       .  A
O369       Cd374   2.071       .  S
Cd370       O372   2.042       .  S
Cd370       O373   1.997       .  S
Cd371       O375   2.043       .  S
Cd371       O384   2.074       .  S
Cd371       O373   1.998       .  S
O372        C382   1.271       .  A
O373       Cd374   1.999       .  S
Cd374       O376   2.039       .  S
O375        C382   1.271       .  A
C377        O381   1.272       .  A
C377        C557   1.438       .  S
C378        C539   1.437       .  S
C380        C561   1.437       .  S
C382        C549   1.414       .  S
C383        O384   1.273       .  A
C383        C537   1.437       .  S
N385        C390   1.362   1_455  A
N385        C389   1.355   1_455  A
N385        H417   1.033       .  S
N386        C393   1.353       .  A
N386        C394   1.357       .  A
N387        C392   1.354       .  A
N387        C391   1.362       .  A
N387        H418   1.033       .  S
N388        C395   1.358   1_655  A
N388        C396   1.352       .  A
C389        C397   1.390       .  A
C389        C405   1.426   1_556  A
C390        C406   1.426   1_565  A
C390        C398   1.386       .  A
C391        C399   1.386   1_655  A
C392        C407   1.425   1_554  A
C392        C400   1.390   1_655  A
C393        C405   1.423       .  A
C393        C401   1.389       .  A
C394        C408   1.421       .  A
C394        C402   1.385       .  A
C395        C403   1.384       .  A
C396        C404   1.390       .  A
C396        C407   1.423       .  A
C397        C398   1.377       .  A
C397        H409   1.082       .  S
C398        H410   1.082       .  S
C399        C400   1.376       .  A
C399        H411   1.082       .  S
C400        H412   1.082       .  S
C401        C402   1.374       .  A
C401        H413   1.082       .  S
C402        H414   1.082       .  S
C403        C404   1.374   1_455  A
C403        H415   1.082       .  S
C404        H416   1.082       .  S
C405        C568   1.455       .  S
C406        C529   1.478       .  S
C407        C565   1.452       .  S
C408        C533   1.475       .  S
N419        C424   1.356       .  A
N419        C423   1.363   1_455  A
N419        H451   1.035       .  S
N420        C427   1.358   1_655  A
N420        C428   1.354   1_655  A
N421        C426   1.360   1_455  A
N421        C425   1.354   1_455  A
N421        H452   1.034       .  S
N422        C429   1.352       .  A
N422        C430   1.357   1_455  A
C423        C431   1.386       .  A
C423        C439   1.425   1_655  A
C424        C440   1.425       .  A
C424        C432   1.390   1_455  A
C425        C433   1.390       .  A
C425        C442   1.423       .  A
C426        C434   1.386       .  A
C427        C435   1.385       .  A
C428        C442   1.422   1_455  A
C428        C436   1.389       .  A
C429        C437   1.389       .  A
C429        C440   1.422       .  A
C430        C438   1.385   1_655  A
C430        C441   1.421       .  A
C431        C432   1.376       .  A
C431        H443   1.082       .  S
C432        H444   1.082       .  S
C433        C434   1.377       .  A
C433        H445   1.082       .  S
C434        H446   1.082       .  S
C435        C436   1.374       .  A
C435        H447   1.082       .  S
C436        H448   1.082       .  S
C437        C438   1.374       .  A
C437        H449   1.082       .  S
C438        H450   1.082       .  S
C439        C532   1.478   1_455  S
C440        C556   1.455       .  S
C441        C536   1.475       .  S
C442        C554   1.455       .  S
N453        C458   1.360       .  A
N453        C457   1.354       .  A
N453        H485   1.036       .  S
N454        C461   1.353       .  A
N454        C462   1.358       .  A
N455        C460   1.354       .  A
N455        C459   1.361       .  A
N455        H486   1.035       .  S
N456        C463   1.358       .  A
N456        C464   1.353       .  A
C457        C465   1.390       .  A
C457        C473   1.423       .  A
C458        C474   1.423       .  A
C458        C466   1.386       .  A
C459        C467   1.386       .  A
C460        C475   1.422   1_554  A
C460        C468   1.390       .  A
C461        C473   1.421   1_554  A
C461        C469   1.389       .  A
C462        C476   1.421       .  A
C462        C470   1.385       .  A
C463        C471   1.385       .  A
C464        C472   1.389       .  A
C464        C475   1.421       .  A
C465        C466   1.378       .  A
C465        H477   1.082       .  S
C466        H478   1.082       .  S
C467        C468   1.377       .  A
C467        H479   1.082       .  S
C468        H480   1.082       .  S
C469        C470   1.375       .  A
C469        H481   1.082       .  S
C470        H482   1.082       .  S
C471        C472   1.374       .  A
C471        H483   1.082       .  S
C472        H484   1.082       .  S
C473        C544   1.455       .  S
C474        C521   1.477       .  S
C475        C541   1.454       .  S
C476        C525   1.476       .  S
N487        C492   1.355       .  A
N487        C491   1.362       .  A
N487        H519   1.035       .  S
N488        C495   1.358       .  A
N488        C496   1.353       .  A
N489        C494   1.362       .  A
N489        C493   1.354       .  A
N489        H520   1.034       .  S
N490        C497   1.352       .  A
N490        C498   1.357       .  A
C491        C499   1.386       .  A
C491        C507   1.425       .  A
C492        C508   1.425       .  A
C492        C500   1.390       .  A
C493        C501   1.390       .  A
C493        C510   1.425       .  A
C494        C502   1.386       .  A
C495        C503   1.385       .  A
C496        C510   1.423       .  A
C496        C504   1.389       .  A
C497        C505   1.390       .  A
C497        C508   1.423       .  A
C498        C506   1.385       .  A
C498        C509   1.421       .  A
C499        C500   1.376       .  A
C499        H511   1.082       .  S
C500        H512   1.082       .  S
C501        C502   1.376       .  A
C501        H513   1.082       .  S
C502        H514   1.082       .  S
C503        C504   1.374       .  A
C503        H515   1.082       .  S
C504        H516   1.082       .  S
C505        C506   1.374       .  A
C505        H517   1.082       .  S
C506        H518   1.082       .  S
C507        C524   1.478       .  S
C508        C540   1.454       .  S
C509        C528   1.477       .  S
C510        C538   1.454       .  S
C521        C522   1.223       .  T
C522        C523   1.439       .  S
C523        C524   1.223       .  T
C525        C526   1.222       .  T
C526        C527   1.438       .  S
C527        C528   1.222       .  T
C529        C530   1.223       .  T
C530        C531   1.439   1_545  S
C531        C532   1.223       .  T
C533        C534   1.221       .  T
C534        C535   1.436       .  S
C535        C536   1.221       .  T
C537        C538   1.207       .  T
C539        C540   1.208       .  T
C541        C542   1.208       .  T
C543        C544   1.208       .  T
C545        C546   1.192       .  T
C546        C547   1.390       .  S
C547        C548   1.192       .  T
C549        C550   1.193       .  T
C550        C551   1.391       .  S
C551        C552   1.193       .  T
C553        C554   1.208       .  T
C555        C556   1.208   1_655  T
C557        C558   1.207       .  T
C558        C559   1.415       .  S
C559        C560   1.208       .  T
C561        C562   1.207       .  T
C562        C563   1.414       .  S
C563        C564   1.207       .  T
C565        C566   1.207   1_556  T
C567        C568   1.209       .  T
C569        C570   1.207       .  T
C570        C571   1.414       .  S
C571        C572   1.207       .  T
C573        C574   1.206       .  T
C574        C575   1.413       .  S
C575        C576   1.206       .  T
C577        C578   1.193       .  T
C578        C579   1.391       .  S
C579        C580   1.193       .  T
C581        C582   1.191       .  T
C582        C583   1.389       .  S
C583        C584   1.192       .  T
