geometry optimzed in LAMMPS
_audit_creation_date              2020-11-30 
_audit_creation_method            'lammps2cif' 
_symmetry_space_group_name_H-M    'P1' 
_symmetry_Int_Tables_number       1 
_symmetry_cell_setting            triclinic 
loop_ 
_symmetry_equiv_pos_as_xyz 
  x,y,z 
_cell_length_a                    39.31652091 
_cell_length_b                    38.87731552892747 
_cell_length_c                    74.0130214204576 
_cell_angle_alpha                 89.90726580446778 
_cell_angle_beta                  90.2849723383564 
_cell_angle_gamma                 120.22938616887492 
loop_ 
_atom_site_label 
_atom_site_type_symbol 
_atom_site_fract_x 
_atom_site_fract_y 
_atom_site_fract_z 
_atom_site_charge 
O1          O  0.38642939  0.24795834  0.85634183    -0.78800
C2          C  0.37823450  0.13378220  0.86392419     0.82300
O3          O  0.37121463  0.18527186  0.79628066    -0.79900
O4          O  0.27906229  0.06918919  0.82746215    -0.81400
O5          O  0.24307317  0.15343360  0.85778644    -0.81200
O6          O  0.32661523  0.24066813  0.85890930    -0.79800
Zn7        Zn  0.37754648  0.20006281  0.84154766     1.55700
O8          O  0.25375152  0.10314861  0.86309321    -0.81200
Cd9        Cd  0.29129472  0.19252289  0.84258062     1.59700
Cd10       Cd  0.31626922  0.15976720  0.80798752     1.59600
O11         O  0.27149416  0.21146296  0.82066154    -0.81200
O12         O  0.32218382  0.16731480  0.83471655    -1.91700
Cd13       Cd  0.29991140  0.11420620  0.84646156     1.59900
O14         O  0.28820099  0.18802449  0.79692056    -0.81100
O15         O  0.34153698  0.11005184  0.86164897    -0.79800
C16         C  0.40561774  0.20864366  0.80250730     0.82800
C17         C  0.36330884  0.25904831  0.86264707     0.82400
O18         O  0.39557614  0.16843107  0.85685726    -0.78700
C19         C  0.23388886  0.12043941  0.86538315     0.83200
O20         O  0.41160028  0.21814456  0.81919849    -0.78800
C21         C  0.27270305  0.20710559  0.80362687     0.83400
C22         C  0.27463614  0.06818180  0.81036667     0.83700
O23         O  0.28572109  0.09980910  0.80114050    -0.81300
C24         C  0.14905710  0.32744578  0.72165685     0.86200
C25         C  0.10831747  0.31076050  0.73041676    -0.54000
C26         C  0.10933784  0.31424355  0.74885721     0.09200
C27         C  0.15120863  0.33395342  0.75680100     0.20100
C28         C  0.17328871  0.37057215  0.72870629    -0.54700
C29         C  0.17385718  0.37421059  0.74703918     0.09300
C30         C  0.16769610  0.30579432  0.73131596    -0.54300
C31         C  0.16860265  0.30873050  0.74976333     0.09800
H32         H  0.08124942  0.29797160  0.72258784     0.14300
H33         H  0.15212793  0.33674553  0.77166670     0.00100
H34         H  0.19002726  0.39638332  0.72025482     0.14600
H35         H  0.17816949  0.28870245  0.72408970     0.14400
C36         C  0.99203806  0.99997628  0.94552413     0.86200
C37         C  0.46822731  0.01961757  0.93929585    -0.54000
C38         C  0.46651482  0.02243964  0.92096164     0.09200
C39         C  0.98826313  0.00536180  0.91044555     0.20100
C40         C  0.47215308  0.46056751  0.93586815    -0.54700
C41         C  0.47033147  0.46312194  0.91756546     0.09300
C42         C  0.03230123  0.02464793  0.93631332    -0.54300
C43         C  0.03034801  0.02723829  0.91797387     0.09800
H44         H  0.45386456  0.03055307  0.94810264     0.14300
H45         H  0.98625460  0.00718656  0.89553315     0.00100
H46         H  0.46187302  0.43241995  0.94281893     0.14600
H47         H  0.05998732  0.03850474  0.94371484     0.14400
O48         O  0.50268242  0.43261706  0.47640115    -0.78800
C49         C  0.09193382  0.05621526  0.47077511     0.82300
O50         O  0.02765471  0.47469366  0.53765810    -0.79900
O51         O  0.05024051  0.09889578  0.51413557    -0.81400
O52         O  0.44030719  0.01237908  0.47187686    -0.81200
O53         O  0.44429762  0.42836466  0.47351220    -0.79800
Zn54       Zn  0.03525999  0.48144916  0.49199388     1.55700
O55         O  0.48877061  0.07364439  0.47825254    -0.81200
Cd56       Cd  0.45048731  0.47576066  0.48829164     1.59700
Cd57       Cd  0.49760871  0.50079393  0.52650985     1.59600
O58         O  0.40696884  0.45534232  0.50760826    -0.81200
O59         O  0.50346862  0.50438116  0.49965745    -1.91700
Cd60       Cd  0.02799897  0.06153626  0.49204381     1.59900
O61         O  0.43861434  0.46962423  0.53405320    -0.81100
O62         O  0.07379007  0.07467008  0.47465090    -0.79800
C63         C  0.04961753  0.46288760  0.53067732     0.82800
C64         C  0.46759696  0.41540506  0.47016938     0.82400
O65         O  0.08160920  0.52156913  0.47700213    -0.78700
C66         C  0.45662542  0.04998467  0.47015335     0.83200
O67         O  0.05526408  0.46427586  0.51365470    -0.78800
C68         C  0.40680249  0.45492718  0.52482630     0.83400
C69         C  0.04408559  0.09287221  0.53104776     0.83700
O70         O  0.02325548  0.05804659  0.53764463    -0.81300
C71         C  0.33205093  0.16876258  0.38855008     0.86200
C72         C  0.29160348  0.14668594  0.39782044    -0.54000
C73         C  0.29345530  0.14974142  0.41620504     0.09200
C74         C  0.33544628  0.17534370  0.42372251     0.20100
C75         C  0.35009395  0.21194915  0.39537066    -0.54700
C76         C  0.35188924  0.21507276  0.41370411     0.09300
C77         C  0.35657343  0.15286751  0.39779596    -0.54300
C78         C  0.35850402  0.15643360  0.41617703     0.09800
H79         H  0.26403153  0.12936934  0.39052973     0.14300
H80         H  0.33667410  0.17828371  0.43867403     0.00100
H81         H  0.36027111  0.23811083  0.38694835     0.14600
H82         H  0.37145650  0.14026394  0.39034916     0.14400
C83         C  0.16793750  0.33796282  0.61229062     0.86200
C84         C  0.15196134  0.29667518  0.60346416    -0.54000
C85         C  0.15655700  0.29800347  0.58510132     0.09200
C86         C  0.17683596  0.34036773  0.57731791     0.20100
C87         C  0.21103031  0.36185211  0.60610322    -0.54700
C88         C  0.21597903  0.36292344  0.58779466     0.09300
C89         C  0.14679019  0.35624704  0.60202047    -0.54300
C90         C  0.15155427  0.35804789  0.58369577     0.09800
H91         H  0.13820238  0.26875384  0.61072162     0.14300
H92         H  0.18050584  0.34106726  0.56252543     0.00100
H93         H  0.23541814  0.37631969  0.61557099     0.14600
H94         H  0.12886282  0.36609058  0.60888252     0.14400
O95         O  0.24349422  0.38034448  0.14053499    -0.78800
C96         C  0.13288003  0.37091135  0.13631224     0.82300
O97         O  0.19909082  0.37930715  0.20300621    -0.79900
O98         O  0.07550231  0.27422974  0.17438530    -0.81400
O99         O  0.16115582  0.23995481  0.14341253    -0.81200
O100        O  0.24812221  0.32583054  0.14302149    -0.79800
Zn101      Zn  0.20081395  0.37356547  0.15716731     1.55700
O102        O  0.10896418  0.24729365  0.13897622    -0.81200
Cd103      Cd  0.19863407  0.29018800  0.15866914     1.59700
Cd104      Cd  0.16709703  0.32003373  0.19334046     1.59600
O105        O  0.21634059  0.27197914  0.18116692    -0.81200
O106        O  0.17149206  0.31988038  0.16621148    -1.91700
Cd107      Cd  0.11830624  0.29460401  0.15485624     1.59900
O108        O  0.19214557  0.28838751  0.20474848    -0.81100
O109        O  0.11049645  0.33372472  0.13886433    -0.79800
C110        C  0.22220506  0.41148980  0.19453848     0.82800
C111        C  0.26005244  0.36047186  0.13656929     0.82400
O112        O  0.16724988  0.38965843  0.14316987    -0.78700
C113        C  0.12760618  0.22886208  0.13624179     0.83200
O114        O  0.22582824  0.41196131  0.17745558    -0.78800
C115        C  0.21097318  0.27246311  0.19811531     0.83400
C116        C  0.07540401  0.27525006  0.19158789     0.83700
O117        O  0.10735839  0.29165837  0.20085048    -0.81300
C118        C  0.99951904  0.98501902  0.05464978     0.86200
C119        C  0.01936773  0.46062537  0.06011309    -0.54000
C120        C  0.02295604  0.45817163  0.07832283     0.09200
C121        C  0.00558528  0.97912247  0.08955813     0.20100
C122        C  0.45962607  0.46318295  0.06464600    -0.54700
C123        C  0.46293579  0.46009884  0.08287470     0.09300
C124        C  0.02311160  0.02517381  0.06439753    -0.54300
C125        C  0.02646389  0.02236919  0.08267390     0.09800
H126        H  0.02936781  0.44601829  0.05093499     0.14300
H127        H  0.00793400  0.97631508  0.10437666     0.00100
H128        H  0.43140942  0.45057231  0.05774090     0.14600
H129        H  0.03658994  0.05339137  0.05725074     0.14400
C130        C  0.33996673  0.15906972  0.27935992     0.86200
C131        C  0.38115835  0.17625769  0.27143053    -0.54000
C132        C  0.38214626  0.17215386  0.25315305     0.09200
C133        C  0.34065300  0.15108543  0.24431059     0.20100
C134        C  0.32113803  0.17916570  0.26879553    -0.54700
C135        C  0.32104620  0.17513976  0.25043961     0.09300
C136        C  0.31780291  0.11548781  0.27276779    -0.54300
C137        C  0.31764412  0.11103269  0.25444137     0.09800
H138        H  0.40747937  0.19118976  0.27976987     0.14300
H139        H  0.34071601  0.14741776  0.22948494     0.00100
H140        H  0.30947067  0.19579241  0.27549981     0.14600
H141        H  0.30370460  0.08983097  0.28148057     0.14400
C142        C  0.29396926  0.37881797  0.12422840    -0.05500
C143        C  0.29493261  0.40427124  0.11049647    -0.05400
C144        C  0.32785169  0.42444340  0.09947183    -0.23600
C145        C  0.36079890  0.42020250  0.10224727     0.18600
C146        C  0.36022531  0.39456925  0.11598051     0.15800
C147        C  0.32644511  0.37341515  0.12671323    -0.18600
C148        C  0.39377611  0.39129989  0.11895236    -0.20500
C149        C  0.42751081  0.41326678  0.10844329    -0.13000
C150        C  0.42803581  0.43839670  0.09465519     0.03700
C151        C  0.39448248  0.44164983  0.09163646    -0.25200
H152        H  0.27012947  0.40870976  0.10834207     0.08700
H153        H  0.32781691  0.44392728  0.08900453     0.12300
H154        H  0.32602338  0.35415155  0.13741568     0.12300
H155        H  0.39397448  0.37190244  0.12941749     0.12000
H156        H  0.45287849  0.40988899  0.11082267     0.12600
H157        H  0.39478958  0.46133446  0.08117402     0.14500
C158        C  0.10949321  0.19412455  0.12406456    -0.05500
C159        C  0.08824778  0.19494892  0.10893421    -0.05400
C160        C  0.06896094  0.16195883  0.09761217    -0.23600
C161        C  0.06980538  0.12713423  0.10144735     0.18600
C162        C  0.09112830  0.12581852  0.11662215     0.15800
C163        C  0.11151726  0.15968251  0.12770998    -0.18600
C164        C  0.09082299  0.09036463  0.12060964    -0.20500
C165        C  0.06946875  0.05661791  0.10972827    -0.13000
C166        C  0.04858492  0.05787539  0.09450028     0.03700
C167        C  0.04901459  0.09342359  0.09048041    -0.25200
H168        H  0.08657181  0.22130765  0.10585628     0.08700
H169        H  0.05279799  0.16346179  0.08603040     0.12300
H170        H  0.12759457  0.15878082  0.13946866     0.12300
H171        H  0.10680336  0.08862883  0.13220935     0.12000
H172        H  0.06981223  0.02972692  0.11313401     0.12600
H173        H  0.03237797  0.09466521  0.07903824     0.14500
C174        C  0.11875297  0.39297246  0.12524863    -0.05500
C175        C  0.13964408  0.43484669  0.12520780    -0.05400
C176        C  0.12566804  0.45598671  0.11546198    -0.23600
C177        C  0.09066246  0.43565255  0.10549392     0.18600
C178        C  0.07007887  0.39354951  0.10489834     0.15800
C179        C  0.08417315  0.37250065  0.11483113    -0.18600
C180        C  0.03539473  0.37327876  0.09462063    -0.20500
C181        C  0.02064440  0.39450076  0.08547055    -0.13000
C182        C  0.04026511  0.43612056  0.08660337     0.03700
C183        C  0.07546630  0.45665100  0.09639540    -0.25200
H184        H  0.16648446  0.45135963  0.13301409     0.08700
H185        H  0.14196428  0.48825107  0.11592617     0.12300
H186        H  0.06803917  0.34020284  0.11455341     0.12300
H187        H  0.51936135  0.34102086  0.09389967     0.12000
H188        H  0.49338055  0.37848137  0.07791616     0.12600
H189        H  0.09075708  0.98940503  0.09723761     0.14500
C190        C  0.22717772  0.25372211  0.21024466    -0.05500
C191        C  0.21287229  0.24223684  0.22789411    -0.05400
C192        C  0.22749133  0.22345496  0.23903558    -0.23600
C193        C  0.25708066  0.21632614  0.23282161     0.18600
C194        C  0.27190691  0.22803863  0.21518114     0.15800
C195        C  0.25676861  0.24642124  0.20399846    -0.18600
C196        C  0.30170962  0.22125138  0.20902919    -0.20500
C197        C  0.31715935  0.20355614  0.22034035    -0.13000
C198        C  0.30309062  0.19212515  0.23802721     0.03700
C199        C  0.27234481  0.19804746  0.24400683    -0.25200
H200        H  0.18997560  0.24727175  0.23299915     0.08700
H201        H  0.21576302  0.21465823  0.25255382     0.12300
H202        H  0.26828962  0.25531596  0.19045286     0.12300
H203        H  0.31344362  0.23007904  0.19552201     0.12000
H204        H  0.34073469  0.19975015  0.21527222     0.12600
H205        H  0.26008553  0.18845870  0.25737602     0.14500
C206        C  0.29589204  0.07106739  0.24554852    -0.05500
C207        C  0.26146679  0.04012469  0.25346558    -0.05400
C208        C  0.24101619  0.00243100  0.24551325    -0.23600
C209        C  0.25410377  0.99477882  0.22927977     0.18600
C210        C  0.28836794  0.02561529  0.22104365     0.15800
C211        C  0.30913922  0.06343066  0.22924559    -0.18600
C212        C  0.30109429  0.01818856  0.20463951    -0.20500
C213        C  0.27963691  0.48087389  0.19617556    -0.13000
C214        C  0.24564038  0.44984981  0.20430347     0.03700
C215        C  0.23356417  0.45684343  0.22105928    -0.25200
H216        H  0.24973167  0.04507643  0.26575484     0.08700
H217        H  0.21466302  0.97939723  0.25196748     0.12300
H218        H  0.33572143  0.08660656  0.22301967     0.12300
H219        H  0.32725873  0.04131260  0.19810670     0.12000
H220        H  0.28979583  0.47631890  0.18330186     0.12600
H221        H  0.20730373  0.43337350  0.22740200     0.14500
C222        C  0.03667813  0.25659821  0.20074518    -0.05500
C223        C  0.00355030  0.25266935  0.19146575    -0.05400
C224        C  0.46659156  0.23455260  0.19965375    -0.23600
C225        C  0.46180268  0.21941120  0.21721746     0.18600
C226        C  0.49469124  0.22243300  0.22655782     0.15800
C227        C  0.03198627  0.24136480  0.21835896    -0.18600
C228        C  0.48967019  0.20642778  0.24393996    -0.20500
C229        C  0.45282284  0.18878657  0.25219878    -0.13000
C230        C  0.42015560  0.18714966  0.24337670     0.03700
C231        C  0.42481701  0.20180789  0.22566230    -0.25200
H232        H  0.00630491  0.26403120  0.17785893     0.08700
H233        H  0.44175279  0.23240383  0.19223249     0.12300
H234        H  0.05715482  0.24365733  0.22554814     0.12300
H235        H  0.01431369  0.20778703  0.25122129     0.12000
H236        H  0.45007798  0.17659437  0.26561424     0.12600
H237        H  0.40018459  0.20079174  0.21862542     0.14500
C238        C  0.34133712  0.16687810  0.29964115    -0.05500
C239        C  0.36185073  0.20657204  0.30586282    -0.05400
C240        C  0.36411617  0.21538558  0.32427061    -0.23600
C241        C  0.34582130  0.18464728  0.33694546     0.18600
C242        C  0.32533802  0.14478647  0.33095205     0.15800
C243        C  0.32310522  0.13615231  0.31248674    -0.18600
C244        C  0.30752153  0.11390682  0.34353498    -0.20500
C245        C  0.30989573  0.12237688  0.36191149    -0.13000
C246        C  0.32961672  0.16192379  0.36821653     0.03700
C247        C  0.34785424  0.19304303  0.35548779    -0.25200
H248        H  0.37625272  0.23092643  0.29635009     0.08700
H249        H  0.38014923  0.24621759  0.32857546     0.12300
H250        H  0.30702718  0.10533427  0.30857078     0.12300
H251        H  0.29192084  0.08306715  0.33917951     0.12000
H252        H  0.29631006  0.09780738  0.37134099     0.12600
H253        H  0.36449151  0.22381077  0.35968556     0.14500
C254        C  0.12626637  0.07564101  0.45864497    -0.05500
C255        C  0.12817438  0.10228020  0.44527471    -0.05400
C256        C  0.16083459  0.12129498  0.43392775    -0.23600
C257        C  0.19258067  0.11475311  0.43605613     0.18600
C258        C  0.19120887  0.08849414  0.44967354     0.15800
C259        C  0.15775082  0.06853791  0.46064020    -0.18600
C260        C  0.22361570  0.08315562  0.45228039    -0.20500
C261        C  0.25713341  0.10374081  0.44155245    -0.13000
C262        C  0.25831088  0.12909499  0.42776961     0.03700
C263        C  0.22588546  0.13436106  0.42497167    -0.25200
H264        H  0.10420348  0.10810851  0.44349854     0.08700
H265        H  0.16145564  0.14147485  0.42363796     0.12300
H266        H  0.15669480  0.04840686  0.47106909     0.12300
H267        H  0.22318672  0.06334999  0.46270626     0.12000
H268        H  0.28190860  0.09935476  0.44377968     0.12600
H269        H  0.22699116  0.15428119  0.41442579     0.14500
C270        C  0.36860162  0.25348682  0.42298138    -0.05500
C271        C  0.34677667  0.27279035  0.42433182    -0.05400
C272        C  0.36242361  0.30909361  0.43341785    -0.23600
C273        C  0.40015878  0.32643957  0.44115561     0.18600
C274        C  0.42264539  0.30748547  0.43939063     0.15800
C275        C  0.40660247  0.27096334  0.43031406    -0.18600
C276        C  0.46054105  0.32517145  0.44691962    -0.20500
C277        C  0.47562073  0.36075469  0.45661419    -0.13000
C278        C  0.45299641  0.37917410  0.45894324     0.03700
C279        C  0.41547764  0.36207982  0.45086984    -0.25200
H280        H  0.31748429  0.25947813  0.41852567     0.08700
H281        H  0.34494123  0.32338290  0.43454415     0.12300
H282        H  0.42356311  0.25613553  0.42890638     0.12300
H283        H  0.47827995  0.31118006  0.44554415     0.12000
H284        H  0.50468514  0.37343254  0.46257665     0.12600
H285        H  0.39783033  0.37613543  0.45235907     0.14500
C286        C  0.38060158  0.14309978  0.42771363    -0.05500
C287        C  0.40294829  0.16623581  0.44247610    -0.05400
C288        C  0.42371280  0.15360875  0.45342632    -0.23600
C289        C  0.42166251  0.11709931  0.45003343     0.18600
C290        C  0.39867816  0.09339902  0.43535067     0.15800
C291        C  0.37880996  0.10677421  0.42415970    -0.18600
C292        C  0.39534693  0.05632432  0.43223733    -0.20500
C293        C  0.41425246  0.04257588  0.44364654    -0.13000
C294        C  0.43756308  0.06589699  0.45817300     0.03700
C295        C  0.44154813  0.10349195  0.46121257    -0.25200
H296        H  0.40471507  0.19432682  0.44545463     0.08700
H297        H  0.44094986  0.17212725  0.46463702     0.12300
H298        H  0.36109647  0.08844547  0.41299984     0.12300
H299        H  0.37774954  0.03774352  0.42110354     0.12000
H300        H  0.41087030  0.01359465  0.44099215     0.12600
H301        H  0.45910584  0.12150525  0.47248320     0.14500
C302        C  0.36851698  0.43795529  0.53421454    -0.05500
C303        C  0.33572086  0.43516484  0.52511508    -0.05400
C304        C  0.29989038  0.42118338  0.53398379    -0.23600
C305        C  0.29591556  0.40903868  0.55205296     0.18600
C306        C  0.32835467  0.41081580  0.56124667     0.15800
C307        C  0.36457617  0.42562041  0.55233713    -0.18600
C308        C  0.32394241  0.39769634  0.57918110    -0.20500
C309        C  0.28770642  0.38271078  0.58787166    -0.13000
C310        C  0.25523967  0.38107805  0.57890569     0.03700
C311        C  0.25991457  0.39487493  0.56100067    -0.25200
H312        H  0.33797693  0.44462038  0.51118394     0.08700
H313        H  0.27527617  0.41982762  0.52669257     0.12300
H314        H  0.38955347  0.42733951  0.55945482     0.12300
H315        H  0.34835695  0.39848503  0.58641378     0.12000
H316        H  0.28501108  0.37155029  0.60149996     0.12600
H317        H  0.23569680  0.39478059  0.55393834     0.14500
C318        C  0.06125336  0.12734126  0.54338307    -0.05500
C319        C  0.04234505  0.12554331  0.55968997    -0.05400
C320        C  0.05746933  0.15849810  0.57114711    -0.23600
C321        C  0.09219301  0.19355974  0.56664433     0.18600
C322        C  0.11202551  0.19539824  0.55047574     0.15800
C323        C  0.09623695  0.16238646  0.53884546    -0.18600
C324        C  0.14717220  0.23028270  0.54619715    -0.20500
C325        C  0.16213173  0.26325026  0.55769604    -0.13000
C326        C  0.14205110  0.26205196  0.57356994     0.03700
C327        C  0.10715981  0.22688297  0.57799614    -0.25200
H328        H  0.51530357  0.09884865  0.56340202     0.08700
H329        H  0.04196404  0.15658609  0.58350611     0.12300
H330        H  0.11120733  0.16384339  0.52637925     0.12300
H331        H  0.16300450  0.23209812  0.53397599     0.12000
H332        H  0.18956383  0.28964410  0.55414865     0.12600
H333        H  0.09102998  0.22565802  0.59003833     0.14500
C334        C  0.06913908  0.44742690  0.54270531    -0.05500
C335        C  0.07649861  0.45928676  0.56091929    -0.05400
C336        C  0.09499493  0.44502916  0.57237576    -0.23600
C337        C  0.10574597  0.41794655  0.56594349     0.18600
C338        C  0.09805269  0.40537614  0.54773981     0.15800
C339        C  0.08035280  0.42063162  0.53616262    -0.18600
C340        C  0.10773650  0.37737297  0.54150144    -0.20500
C341        C  0.12470809  0.36182861  0.55318019    -0.13000
C342        C  0.13322024  0.37458759  0.57127386     0.03700
C343        C  0.12375955  0.40302759  0.57746777    -0.25200
H344        H  0.06832534  0.48002264  0.56627048     0.08700
H345        H  0.10054834  0.45491019  0.58631891     0.12300
H346        H  0.07455008  0.41101405  0.52218157     0.12300
H347        H  0.10163254  0.36700640  0.52763709     0.12000
H348        H  0.13037489  0.33923258  0.54798875     0.12600
H349        H  0.13053889  0.41391890  0.59122194     0.14500
C350        C  0.99481310  0.99027045  0.03452232    -0.05500
C351        C  0.47202865  0.50747359  0.02931736    -0.05400
C352        C  0.46669323  0.51314110  0.01111276    -0.23600
C353        C  0.48434012  0.00165305  0.99757147     0.18600
C354        C  0.00683745  0.98411233  0.00264489     0.15800
C355        C  0.01199586  0.97856823  0.02096686    -0.18600
C356        C  0.02402408  0.97240570  0.98930602    -0.20500
C357        C  0.01881507  0.97784232  0.97111052    -0.13000
C358        C  0.99640232  0.99519943  0.96571232     0.03700
C359        C  0.47896094  0.50754714  0.97928350    -0.25200
H360        H  0.45873296  0.51702347  0.03944391     0.08700
H361        H  0.44929913  0.52669562  0.00759479     0.12300
H362        H  0.02992585  0.96580036  0.02428784     0.12300
H363        H  0.04147059  0.95897285  0.99292528     0.12000
H364        H  0.03242474  0.96839860  0.96109280     0.12600
H365        H  0.46119742  0.52059231  0.97586818     0.14500
C366        C  0.14677079  0.32220095  0.70107481    -0.05500
C367        C  0.13248012  0.28402979  0.69358085    -0.05400
C368        C  0.13297443  0.27873015  0.67488782    -0.23600
C369        C  0.14725280  0.31148232  0.66317420     0.18600
C370        C  0.15967635  0.34954197  0.67040695     0.15800
C371        C  0.15855440  0.35456315  0.68910897    -0.18600
C372        C  0.17386352  0.38247236  0.65889024    -0.20500
C373        C  0.17645688  0.37782976  0.64038538    -0.13000
C374        C  0.16418549  0.34019067  0.63275344     0.03700
C375        C  0.14939588  0.30689106  0.64440976    -0.25200
H376        H  0.12172563  0.25821311  0.70230353     0.08700
H377        H  0.12269270  0.24910209  0.66962519     0.12300
H378        H  0.16669411  0.38369685  0.69394513     0.12300
H379        H  0.18351427  0.41180674  0.66419290     0.15900
H380        H  0.18815590  0.40408345  0.63185623     0.12600
H381        H  0.14003342  0.27749924  0.63926808     0.14500
C382        C  0.37889893  0.29376177  0.87487259    -0.05500
C383        C  0.35452670  0.29493045  0.88838613    -0.05400
C384        C  0.36803399  0.32786137  0.89976907    -0.23600
C385        C  0.40587631  0.36069760  0.89755722     0.18600
C386        C  0.43074730  0.35999026  0.88397677     0.15800
C387        C  0.41738100  0.32612182  0.87295179    -0.18600
C388        C  0.46816511  0.39352784  0.88143416    -0.20500
C389        C  0.98055644  0.42750260  0.89209695    -0.13000
C390        C  0.45618292  0.42802725  0.90573178     0.03700
C391        C  0.41902151  0.39445087  0.90853708    -0.25200
H392        H  0.32491896  0.27015364  0.89020039     0.08700
H393        H  0.34862258  0.32791946  0.91009537     0.12300
H394        H  0.43629270  0.32550973  0.86249792     0.12300
H395        H  0.98763565  0.39361413  0.87110767     0.12000
H396        H  0.00954477  0.45314498  0.88996867     0.12600
H397        H  0.40018843  0.39495714  0.91906040     0.14500
C398        C  0.19909840  0.10134891  0.87713303    -0.05500
C399        C  0.19795301  0.07746280  0.89163986    -0.05400
C400        C  0.16488683  0.05871540  0.90269938    -0.23600
C401        C  0.13215106  0.06297727  0.89919952     0.18600
C402        C  0.13274602  0.08638763  0.88442641     0.15800
C403        C  0.16647563  0.10595084  0.87365041    -0.18600
C404        C  0.09942025  0.08943139  0.88057249    -0.20500
C405        C  0.06595463  0.06976652  0.89137034    -0.13000
C406        C  0.06559128  0.04751063  0.90639284     0.03700
C407        C  0.09874506  0.04400027  0.91016645    -0.25200
H408        H  0.22286873  0.07360435  0.89453367     0.08700
H409        H  0.16482399  0.04072131  0.91389767     0.12300
H410        H  0.16700000  0.12391016  0.86231872     0.12300
H411        H  0.09919164  0.10687514  0.86919774     0.12000
H412        H  0.04058644  0.07252385  0.88811204     0.12600
H413        H  0.09828141  0.02595540  0.92143832     0.14500
C414        C  0.40100848  0.12002861  0.87471217    -0.05500
C415        C  0.44237446  0.14065309  0.87421357    -0.05400
C416        C  0.46359705  0.12588937  0.88334698    -0.23600
C417        C  0.44383839  0.09041406  0.89326334     0.18600
C418        C  0.40230091  0.07006993  0.89430049     0.15800
C419        C  0.38123406  0.08489599  0.88499545    -0.18600
C420        C  0.38247884  0.03499187  0.90449586    -0.20500
C421        C  0.40359896  0.01992934  0.91340894    -0.13000
C422        C  0.44468795  0.03941490  0.91205991     0.03700
C423        C  0.46478374  0.07474594  0.90207168    -0.25200
H424        H  0.45832956  0.16774013  0.86640990     0.08700
H425        H  0.49543622  0.14199526  0.88249836     0.12300
H426        H  0.34934825  0.06880260  0.88564844     0.12300
H427        H  0.35066319  0.01911712  0.90549655     0.12000
H428        H  0.38786840  0.99266199  0.92112016     0.12600
H429        H  0.49660409  0.09013331  0.90133164     0.14500
C430        C  0.25624881  0.22511607  0.79121873    -0.05500
C431        C  0.26997928  0.23457156  0.77336585    -0.05400
C432        C  0.25573801  0.25284335  0.76171800    -0.23600
C433        C  0.22695825  0.26142170  0.76759160     0.18600
C434        C  0.21216036  0.25109259  0.78534691     0.15800
C435        C  0.22716922  0.23342924  0.79710566    -0.18600
C436        C  0.18259137  0.25861506  0.79103921    -0.20500
C437        C  0.16822587  0.27673025  0.77938436    -0.13000
C438        C  0.18352949  0.28838486  0.76186263     0.03700
C439        C  0.21286957  0.28028115  0.75604365    -0.25200
H440        H  0.29239106  0.22853409  0.76849622     0.08700
H441        H  0.26729713  0.26032003  0.74811953     0.12300
H442        H  0.21601731  0.22588354  0.81077516     0.12300
H443        H  0.17041011  0.25031604  0.80450077     0.12000
H444        H  0.14466556  0.28105318  0.78413566     0.12600
H445        H  0.22529548  0.28914549  0.74265454     0.14500
C446        C  0.07377440  0.30054896  0.76030892    -0.05500
C447        C  0.07623357  0.32047997  0.77654712    -0.05400
C448        C  0.04375149  0.30671089  0.78793715    -0.23600
C449        C  0.00798088  0.27292727  0.78325078     0.18600
C450        C  0.00476033  0.25318017  0.76676069     0.15800
C451        C  0.03764840  0.26701501  0.75543018    -0.18600
C452        C  0.46878326  0.21967076  0.76197446    -0.20500
C453        C  0.43641085  0.20566743  0.77347354    -0.13000
C454        C  0.43952769  0.22463479  0.79006689     0.03700
C455        C  0.47546949  0.25844917  0.79482503    -0.25200
H456        H  0.10320498  0.34703165  0.78046110     0.08700
H457        H  0.04665216  0.32249104  0.80043154     0.12300
H458        H  0.03528929  0.25108148  0.74305977     0.12300
H459        H  0.96572389  0.20416209  0.74937973     0.12000
H460        H  0.40908511  0.17948261  0.76951860     0.12600
H461        H  0.47815433  0.27353536  0.80751819     0.14500
C462        C  0.25651318  0.02919759  0.80101893    -0.05500
C463        C  0.25308846  0.99557135  0.80990001    -0.05400
C464        C  0.23719377  0.45868320  0.80086623    -0.23600
C465        C  0.22356687  0.45463471  0.78303260     0.18600
C466        C  0.22618502  0.48797408  0.77402574     0.15800
C467        C  0.24289960  0.02532773  0.78312493    -0.18600
C468        C  0.21188585  0.48380772  0.75634155    -0.20500
C469        C  0.19503253  0.44697447  0.74766455    -0.13000
C470        C  0.19267175  0.41356575  0.75635488     0.03700
C471        C  0.20722520  0.41780611  0.77409747    -0.25200
H472        H  0.26342444  0.99770458  0.82366578     0.08700
H473        H  0.23532151  0.43343900  0.80802522     0.12300
H474        H  0.24509160  0.05091905  0.77614659     0.12300
H475        H  0.21330302  0.50895037  0.74928013     0.12000
H476        H  0.18315619  0.44464224  0.73419915     0.12600
H477        H  0.20624672  0.39269973  0.78096516     0.14500
O478        O  0.38564490  0.74783119  0.85583098    -0.78800
C479        C  0.37761108  0.63379445  0.86375110     0.82300
O480        O  0.37024611  0.68486352  0.79592041    -0.79900
O481        O  0.27918697  0.56895567  0.82713597    -0.81400
O482        O  0.24198802  0.65236926  0.85741998    -0.81200
O483        O  0.32566702  0.73992408  0.85881364    -0.79800
Zn484      Zn  0.37670034  0.69973400  0.84121843     1.55700
O485        O  0.25266433  0.60201415  0.86250274    -0.81200
Cd486      Cd  0.29038800  0.69187743  0.84242316     1.59700
Cd487      Cd  0.31533009  0.65941100  0.80770206     1.59600
O488        O  0.27077905  0.71124925  0.82060923    -0.81200
O489        O  0.32137170  0.66688788  0.83442958    -1.91700
Cd490      Cd  0.29936304  0.61379093  0.84612892     1.59900
O491        O  0.28735618  0.68792599  0.79677564    -0.81100
O492        O  0.34095538  0.60993576  0.86144163    -0.79800
C493        C  0.40466080  0.70809955  0.80217365     0.82800
C494        C  0.36247852  0.75868542  0.86230268     0.82400
O495        O  0.39486680  0.66840258  0.85664733    -0.78700
C496        C  0.23265711  0.61914070  0.86481217     0.83200
O497        O  0.41062053  0.71751482  0.81887052    -0.78800
C498        C  0.27202917  0.70710274  0.80356303     0.83400
C499        C  0.27437021  0.56787511  0.81007248     0.83700
O500        O  0.28482990  0.59941615  0.80086577    -0.81300
C501        C  0.14876767  0.82799148  0.72170687     0.86200
C502        C  0.10797848  0.81095302  0.73047226    -0.54000
C503        C  0.10893884  0.81431889  0.74891780     0.09200
C504        C  0.15083200  0.83433486  0.75686405     0.20100
C505        C  0.17266707  0.87111915  0.72879905    -0.54700
C506        C  0.17325724  0.87468273  0.74713936     0.09300
C507        C  0.16769287  0.80658538  0.73134393    -0.54300
C508        C  0.16852643  0.80942784  0.74979186     0.09800
H509        H  0.08090627  0.79797749  0.72263894     0.14300
H510        H  0.15173919  0.83699880  0.77173712     0.00100
H511        H  0.18924818  0.89704174  0.72036398     0.14600
H512        H  0.17833569  0.78964042  0.72411097     0.14400
C513        C  0.99206792  0.50100279  0.94557992     0.86200
C514        C  0.46825151  0.52066720  0.93938657    -0.54000
C515        C  0.46623204  0.52319431  0.92104793     0.09200
C516        C  0.98768987  0.50585261  0.91050159     0.20100
C517        C  0.47234863  0.95968176  0.93569039    -0.54700
C518        C  0.47082222  0.96252609  0.91738387     0.09300
C519        C  0.03218679  0.52547478  0.93620833    -0.54300
C520        C  0.02987530  0.52777058  0.91786993     0.09800
H521        H  0.45417463  0.53187224  0.94822160     0.14300
H522        H  0.98547561  0.50749226  0.89558872     0.00100
H523        H  0.46186983  0.93142239  0.94256747     0.14600
H524        H  0.06003197  0.53932939  0.94348285     0.14400
O525        O  0.50220595  0.93293347  0.47656038    -0.78800
C526        C  0.09205431  0.55604645  0.47066147     0.82300
O527        O  0.02821750  0.97541432  0.53782507    -0.79900
O528        O  0.05033065  0.59840189  0.51398600    -0.81400
O529        O  0.44054845  0.51193341  0.47130204    -0.81200
O530        O  0.44391049  0.92882401  0.47357889    -0.79800
Zn531      Zn  0.03501866  0.98168048  0.49214591     1.55700
O532        O  0.48843861  0.57318159  0.47814569    -0.81200
Cd533      Cd  0.45040662  0.97607050  0.48863114     1.59700
Cd534      Cd  0.49782859  0.00133430  0.52680370     1.59600
O535        O  0.40714730  0.95535018  0.50803940    -0.81200
O536        O  0.50347548  0.00478191  0.49991697    -1.91700
Cd537      Cd  0.02785560  0.56112170  0.49185718     1.59900
O538        O  0.43882796  0.96973893  0.53447792    -0.81100
O539        O  0.07365625  0.57427848  0.47447769    -0.79800
C540        C  0.04976651  0.96317369  0.53076327     0.82800
C541        C  0.46718045  0.91582219  0.47026298     0.82400
O542        O  0.08131449  0.02168687  0.47709888    -0.78700
C543        C  0.45657675  0.54957048  0.46982558     0.83200
O544        O  0.05502087  0.96426060  0.51371664    -0.78800
C545        C  0.40699063  0.95485031  0.52525475     0.83400
C546        C  0.04422599  0.59222640  0.53089460     0.83700
O547        O  0.02327875  0.55736651  0.53742414    -0.81300
C548        C  0.33238457  0.66907924  0.38848185     0.86200
C549        C  0.29188872  0.64701799  0.39771129    -0.54000
C550        C  0.29364953  0.65031384  0.41609113     0.09200
C551        C  0.33558184  0.67607983  0.42364481     0.20100
C552        C  0.35026476  0.71233093  0.39518610    -0.54700
C553        C  0.35200033  0.71572684  0.41351128     0.09300
C554        C  0.35691955  0.65337535  0.39787967    -0.54300
C555        C  0.35866833  0.65702085  0.41626553     0.09800
H556        H  0.26437118  0.62949377  0.39040971     0.14300
H557        H  0.33663572  0.67916075  0.43858604     0.00100
H558        H  0.36045685  0.73836058  0.38669933     0.14600
H559        H  0.37178953  0.64064884  0.39051629     0.14400
C560        C  0.16732362  0.83731987  0.61226595     0.86200
C561        C  0.15117572  0.79594781  0.60349257    -0.54000
C562        C  0.15583295  0.79715203  0.58512941     0.09200
C563        C  0.17622588  0.83948785  0.57728899     0.20100
C564        C  0.21042563  0.86096107  0.60607498    -0.54700
C565        C  0.21538211  0.86190309  0.58777415     0.09300
C566        C  0.14636070  0.85572982  0.60195095    -0.54300
C567        C  0.15110245  0.85740821  0.58362615     0.09800
H568        H  0.13746337  0.76808492  0.61080223     0.14300
H569        H  0.17989204  0.84011305  0.56249192     0.00100
H570        H  0.23483331  0.87534783  0.61553906     0.14600
H571        H  0.12856921  0.86577114  0.60879179     0.14400
O572        O  0.24352757  0.88070467  0.14042606    -0.78800
C573        C  0.13309432  0.87120711  0.13615334     0.82300
O574        O  0.19888174  0.87954582  0.20288583    -0.79900
O575        O  0.07548744  0.77459500  0.17413343    -0.81400
O576        O  0.16133117  0.74009394  0.14327503    -0.81200
O577        O  0.24805750  0.82611566  0.14283402    -0.79800
Zn578      Zn  0.20089203  0.87387981  0.15708656     1.55700
O579        O  0.10908387  0.74727182  0.13870066    -0.81200
Cd580      Cd  0.19868198  0.79041731  0.15853207     1.59700
Cd581      Cd  0.16708673  0.82031311  0.19316639     1.59600
O582        O  0.21646916  0.77233980  0.18106301    -0.81200
O583        O  0.17150652  0.82009456  0.16604131    -1.91700
Cd584      Cd  0.11836062  0.79469463  0.15459752     1.59900
O585        O  0.19218874  0.78872982  0.20461924    -0.81100
O586        O  0.11077486  0.83395922  0.13858414    -0.79800
C587        C  0.22205247  0.91177185  0.19446800     0.82800
C588        C  0.25999230  0.86077625  0.13639995     0.82400
O589        O  0.16736199  0.88996732  0.14310861    -0.78700
C590        C  0.12783164  0.72890761  0.13602757     0.83200
O591        O  0.22584894  0.91231374  0.17739302    -0.78800
C592        C  0.21108774  0.77285203  0.19801107     0.83400
C593        C  0.07540838  0.77577775  0.19133862     0.83700
O594        O  0.10736064  0.79210334  0.20060108    -0.81300
C595        C  0.99909087  0.48441643  0.05465224     0.86200
C596        C  0.01985222  0.96133292  0.06019569    -0.54000
C597        C  0.02307150  0.95868456  0.07841329     0.09200
C598        C  0.00583158  0.47888031  0.08953784     0.20100
C599        C  0.45984655  0.96356675  0.06447636    -0.54700
C600        C  0.46282048  0.96029385  0.08271343     0.09300
C601        C  0.02300527  0.52465988  0.06429377    -0.54300
C602        C  0.02673356  0.52208583  0.08255995     0.09800
H603        H  0.03021570  0.94696668  0.05107620     0.14300
H604        H  0.00842723  0.47618339  0.10434511     0.00100
H605        H  0.43175585  0.95098066  0.05746091     0.14600
H606        H  0.03642797  0.55276890  0.05706287     0.14400
C607        C  0.34007991  0.65907615  0.27923937     0.86200
C608        C  0.38124279  0.67640497  0.27127510    -0.54000
C609        C  0.38221555  0.67244469  0.25298952     0.09200
C610        C  0.34068921  0.65129068  0.24416984     0.20100
C611        C  0.32113091  0.67914956  0.26873562    -0.54700
C612        C  0.32103060  0.67527040  0.25036489     0.09300
C613        C  0.31799121  0.61554475  0.27260982    -0.54300
C614        C  0.31775968  0.61115531  0.25427164     0.09800
H615        H  0.40757220  0.69139827  0.27960528     0.14300
H616        H  0.34075395  0.64769764  0.22934052     0.00100
H617        H  0.30947734  0.69572542  0.27549523     0.14600
H618        H  0.30398603  0.58988856  0.28132635     0.14400
C619        C  0.29381172  0.87906278  0.12400762    -0.05500
C620        C  0.29477936  0.90456343  0.11029609    -0.05400
C621        C  0.32764383  0.92464112  0.09922491    -0.23600
C622        C  0.36053400  0.92027031  0.10194497     0.18600
C623        C  0.35991962  0.89456726  0.11565475     0.15800
C624        C  0.32619568  0.87350035  0.12641956    -0.18600
C625        C  0.39339454  0.89116291  0.11859379    -0.20500
C626        C  0.42714462  0.91314197  0.10810927    -0.13000
C627        C  0.42775542  0.93839569  0.09436667     0.03700
C628        C  0.39423063  0.94169689  0.09133243    -0.25200
H629        H  0.27002848  0.90911082  0.10819520     0.08700
H630        H  0.32762900  0.94417488  0.08877829     0.12300
H631        H  0.32576445  0.85419342  0.13710324     0.12300
H632        H  0.39354499  0.87169640  0.12903576     0.12000
H633        H  0.45248636  0.90972044  0.11048803     0.12600
H634        H  0.39460672  0.96145782  0.08089156     0.14500
C635        C  0.10999464  0.69418782  0.12380621    -0.05500
C636        C  0.08943051  0.69520737  0.10844913    -0.05400
C637        C  0.07045955  0.66227653  0.09705989    -0.23600
C638        C  0.07088306  0.62728703  0.10105686     0.18600
C639        C  0.09161140  0.62580345  0.11642918     0.15800
C640        C  0.11172906  0.65962186  0.12758352    -0.18600
C641        C  0.09093110  0.59021367  0.12055416    -0.20500
C642        C  0.06965033  0.55645062  0.10966258    -0.13000
C643        C  0.04915434  0.55777892  0.09429231     0.03700
C644        C  0.05014083  0.59354591  0.09008728    -0.25200
H645        H  0.08803768  0.72167096  0.10524923     0.08700
H646        H  0.05479895  0.66393309  0.08531167     0.12300
H647        H  0.12732781  0.65857833  0.13949744     0.12300
H648        H  0.10650675  0.58836278  0.13228994     0.12000
H649        H  0.06969761  0.52946713  0.11319875     0.12600
H650        H  0.03386085  0.59493052  0.07853252     0.14500
C651        C  0.11899029  0.89335040  0.12514298    -0.05500
C652        C  0.13974690  0.93522832  0.12525136    -0.05400
C653        C  0.12570493  0.95642221  0.11559656    -0.23600
C654        C  0.09076056  0.93613726  0.10558215     0.18600
C655        C  0.07031748  0.89404494  0.10484762     0.15800
C656        C  0.08449914  0.87294641  0.11467048    -0.18600
C657        C  0.03567064  0.87381560  0.09454674    -0.20500
C658        C  0.02083250  0.89505671  0.08549250    -0.13000
C659        C  0.04034399  0.93665273  0.08673234     0.03700
C660        C  0.07549670  0.95715830  0.09656033    -0.25200
H661        H  0.16651621  0.95169239  0.13311027     0.08700
H662        H  0.14188955  0.98868094  0.11617367     0.12300
H663        H  0.06847400  0.84065367  0.11428060     0.12300
H664        H  0.51973618  0.84156923  0.09373017     0.12000
H665        H  0.49361273  0.87906667  0.07790342     0.12600
H666        H  0.09077815  0.48890755  0.09701407     0.14500
C667        C  0.22737281  0.75421426  0.21017185    -0.05500
C668        C  0.21332312  0.74307943  0.22788062    -0.05400
C669        C  0.22802607  0.72442192  0.23905730    -0.23600
C670        C  0.25743529  0.71704065  0.23281838     0.18600
C671        C  0.27202872  0.72842807  0.21512445     0.15800
C672        C  0.25681461  0.74669804  0.20390905    -0.18600
C673        C  0.30165541  0.72140158  0.20894561    -0.20500
C674        C  0.31708965  0.70369605  0.22026085    -0.13000
C675        C  0.30319128  0.69247709  0.23798807     0.03700
C676        C  0.27269877  0.69876608  0.24401765    -0.25200
H677        H  0.19056058  0.74829502  0.23300955     0.08700
H678        H  0.21648058  0.71589097  0.25261862     0.12300
H679        H  0.26815069  0.75531839  0.19031926     0.12300
H680        H  0.31323380  0.73000401  0.19540119     0.12000
H681        H  0.34048953  0.69966553  0.21514374     0.12600
H682        H  0.26057251  0.68939924  0.25742136     0.14500
C683        C  0.29601928  0.57116018  0.24537300    -0.05500
C684        C  0.26187086  0.54007135  0.25341501    -0.05400
C685        C  0.24156460  0.50229052  0.24554557    -0.23600
C686        C  0.25447022  0.49467097  0.22925657     0.18600
C687        C  0.28839223  0.52564588  0.22086457     0.15800
C688        C  0.30904276  0.56357339  0.22898613    -0.18600
C689        C  0.30091025  0.51821912  0.20439986    -0.20500
C690        C  0.27971389  0.98097019  0.19631804    -0.13000
C691        C  0.24541668  0.95006060  0.20429619     0.03700
C692        C  0.23308376  0.95706094  0.22098689    -0.25200
H693        H  0.25023919  0.54494502  0.26575548     0.08700
H694        H  0.21545613  0.47915043  0.25211420     0.12300
H695        H  0.33538339  0.58685234  0.22264410     0.12300
H696        H  0.32681455  0.54143656  0.19774448     0.12000
H697        H  0.29005949  0.97640328  0.18349870     0.12600
H698        H  0.20658197  0.93368157  0.22720926     0.14500
C699        C  0.03672756  0.75739819  0.20052814    -0.05500
C700        C  0.00358919  0.75349553  0.19126942    -0.05400
C701        C  0.46666591  0.73550352  0.19950150    -0.23600
C702        C  0.46191876  0.72040202  0.21707572     0.18600
C703        C  0.49485466  0.72351207  0.22640605     0.15800
C704        C  0.03211119  0.74239043  0.21818094    -0.18600
C705        C  0.48990434  0.70751040  0.24378185    -0.20500
C706        C  0.45303737  0.68961480  0.25201975    -0.13000
C707        C  0.42027617  0.68779478  0.24320639     0.03700
C708        C  0.42491256  0.70262435  0.22552127    -0.25200
H709        H  0.00630187  0.76473451  0.17764056     0.08700
H710        H  0.44180219  0.73331742  0.19208864     0.12300
H711        H  0.05729673  0.74470827  0.22536531     0.12300
H712        H  0.01459897  0.70896540  0.25105726     0.12000
H713        H  0.45034811  0.67732793  0.26540933     0.12600
H714        H  0.40022026  0.70149907  0.21849400     0.14500
C715        C  0.34158748  0.66680409  0.29953944    -0.05500
C716        C  0.36197083  0.70650360  0.30574957    -0.05400
C717        C  0.36436922  0.71533815  0.32415523    -0.23600
C718        C  0.34630066  0.68461173  0.33684855     0.18600
C719        C  0.32603410  0.64472802  0.33088834     0.15800
C720        C  0.32372843  0.63605812  0.31241222    -0.18600
C721        C  0.30843484  0.61389713  0.34351574    -0.20500
C722        C  0.31068496  0.62246419  0.36189053    -0.13000
C723        C  0.33013842  0.66204841  0.36815044     0.03700
C724        C  0.34829899  0.69310645  0.35538198    -0.25200
H725        H  0.37615304  0.73086403  0.29622622     0.08700
H726        H  0.38025660  0.74617168  0.32843819     0.12300
H727        H  0.30787511  0.60522774  0.30850509     0.12300
H728        H  0.29302179  0.58304284  0.33919601     0.12000
H729        H  0.29718597  0.59794976  0.37135042     0.12600
H730        H  0.36474134  0.72384342  0.35951883     0.14500
C731        C  0.12649700  0.57573371  0.45859244    -0.05500
C732        C  0.12881133  0.60321751  0.44558098    -0.05400
C733        C  0.16157932  0.62258569  0.43432501    -0.23600
C734        C  0.19303049  0.61550963  0.43616759     0.18600
C735        C  0.19128014  0.58839296  0.44942331     0.15800
C736        C  0.15771815  0.56813382  0.46031239    -0.18600
C737        C  0.22341444  0.58249441  0.45174538    -0.20500
C738        C  0.25699814  0.60332477  0.44107625    -0.13000
C739        C  0.25850607  0.62950287  0.42763482     0.03700
C740        C  0.22639381  0.63538554  0.42513571    -0.25200
H741        H  0.10508139  0.60947615  0.44401601     0.08700
H742        H  0.16250264  0.64343220  0.42432223     0.12300
H743        H  0.15638052  0.54735461  0.47046495     0.12300
H744        H  0.22271230  0.56203884  0.46189542     0.12000
H745        H  0.28155875  0.59849236  0.44307145     0.12600
H746        H  0.22777302  0.65593295  0.41485113     0.14500
C747        C  0.36884216  0.75439564  0.42263504    -0.05500
C748        C  0.34878547  0.77566156  0.42242197    -0.05400
C749        C  0.36469076  0.81228798  0.43127546    -0.23600
C750        C  0.40101622  0.82809445  0.44028489     0.18600
C751        C  0.42187749  0.80724864  0.44000473     0.15800
C752        C  0.40551165  0.77037902  0.43121743    -0.18600
C753        C  0.45851904  0.82343723  0.44868363    -0.20500
C754        C  0.47382738  0.85934749  0.45811053    -0.13000
C755        C  0.45264248  0.87955768  0.45907446     0.03700
C756        C  0.41651036  0.86403777  0.44980765    -0.25200
H757        H  0.32060785  0.76360977  0.41559805     0.08700
H758        H  0.34849715  0.82804443  0.43121511     0.12300
H759        H  0.42132850  0.75422695  0.43091790     0.12300
H760        H  0.47504418  0.80799700  0.44843304     0.12000
H761        H  0.50179878  0.87077357  0.46502728     0.12600
H762        H  0.40009393  0.87957162  0.45021883     0.14500
C763        C  0.38017830  0.64314249  0.42794941    -0.05500
C764        C  0.40133404  0.66531695  0.44315655    -0.05400
C765        C  0.42178595  0.65235329  0.45413091    -0.23600
C766        C  0.42063769  0.61643060  0.45031706     0.18600
C767        C  0.39867186  0.59353253  0.43525504     0.15800
C768        C  0.37905940  0.60723324  0.42406811    -0.18600
C769        C  0.39619026  0.55696661  0.43172698    -0.20500
C770        C  0.41505489  0.54300630  0.44305886    -0.13000
C771        C  0.43748243  0.56562653  0.45792820     0.03700
C772        C  0.44049105  0.60264943  0.46142307    -0.25200
H773        H  0.40249706  0.69296857  0.44647058     0.08700
H774        H  0.43816383  0.67020487  0.46566144     0.12300
H775        H  0.36215322  0.58948888  0.41261281     0.12300
H776        H  0.37934345  0.53896832  0.42030622     0.12000
H777        H  0.41237734  0.51445109  0.44007161     0.12600
H778        H  0.45730106  0.62008086  0.47297294     0.14500
C779        C  0.36861936  0.93757606  0.53459442    -0.05500
C780        C  0.33592364  0.93493264  0.52545772    -0.05400
C781        C  0.29994962  0.92066225  0.53421619    -0.23600
C782        C  0.29570588  0.90808390  0.55221818     0.18600
C783        C  0.32801211  0.90963880  0.56145058     0.15800
C784        C  0.36440990  0.92473550  0.55264734    -0.18600
C785        C  0.32328942  0.89606873  0.57931975    -0.20500
C786        C  0.28694463  0.88103708  0.58792308    -0.13000
C787        C  0.25466670  0.87976592  0.57893024     0.03700
C788        C  0.25958161  0.89379924  0.56106831    -0.25200
H789        H  0.33836760  0.94474875  0.51157824     0.08700
H790        H  0.27544246  0.91947187  0.52689534     0.12300
H791        H  0.38930155  0.92631302  0.55978664     0.12300
H792        H  0.34756681  0.89662908  0.58658002     0.12000
H793        H  0.28402662  0.86962830  0.60151479     0.12600
H794        H  0.23547381  0.89388716  0.55398324     0.14500
C795        C  0.06149147  0.62652160  0.54332490    -0.05500
C796        C  0.04239860  0.62461235  0.55958756    -0.05400
C797        C  0.05743170  0.65744881  0.57110810    -0.23600
C798        C  0.09222483  0.69252716  0.56670691     0.18600
C799        C  0.11233414  0.69442780  0.55061967     0.15800
C800        C  0.09666797  0.66150145  0.53893132    -0.18600
C801        C  0.14754261  0.72934616  0.54644777    -0.20500
C802        C  0.16216509  0.76234908  0.55791682    -0.13000
C803        C  0.14172498  0.76113175  0.57366995     0.03700
C804        C  0.10690428  0.72585406  0.57804886    -0.25200
H805        H  0.51523741  0.59794764  0.56320075     0.08700
H806        H  0.04173372  0.65547345  0.58340976     0.12300
H807        H  0.11179897  0.66301437  0.52651104     0.12300
H808        H  0.16361680  0.73120299  0.53430723     0.12000
H809        H  0.18959541  0.78881199  0.55442994     0.12600
H810        H  0.09055577  0.72458397  0.59001593     0.14500
C811        C  0.06925502  0.94754276  0.54272776    -0.05500
C812        C  0.07700430  0.95959115  0.56090752    -0.05400
C813        C  0.09544970  0.94520338  0.57231978    -0.23600
C814        C  0.10579341  0.91781462  0.56588318     0.18600
C815        C  0.09771985  0.90503692  0.54771623     0.15800
C816        C  0.08002939  0.92039693  0.53617659    -0.18600
C817        C  0.10706726  0.87676940  0.54148289    -0.20500
C818        C  0.12408299  0.86118681  0.55313139    -0.13000
C819        C  0.13289756  0.87410180  0.57119477     0.03700
C820        C  0.12378816  0.90281072  0.57737482    -0.25200
H821        H  0.06917448  0.98057803  0.56626865     0.08700
H822        H  0.10130138  0.95524486  0.58623648     0.12300
H823        H  0.07392111  0.91062000  0.52222311     0.12300
H824        H  0.10069400  0.86625221  0.52764619     0.12000
H825        H  0.12954761  0.83844046  0.54795458     0.12600
H826        H  0.13083230  0.91384930  0.59109924     0.14500
C827        C  0.99407999  0.48958781  0.03454286    -0.05500
C828        C  0.47305131  0.00841309  0.02921993    -0.05400
C829        C  0.46760104  0.01375774  0.01099282    -0.23600
C830        C  0.48390359  0.50170414  0.99763796     0.18600
C831        C  0.00663661  0.48437373  0.00263957     0.15800
C832        C  0.01160269  0.47841848  0.02093603    -0.18600
C833        C  0.02431314  0.47335123  0.98925723    -0.20500
C834        C  0.01932066  0.47920475  0.97108925    -0.13000
C835        C  0.99664367  0.49631350  0.96575706     0.03700
C836        C  0.47916515  0.00705259  0.97919662    -0.25200
H837        H  0.45999391  0.01832519  0.03930420     0.08700
H838        H  0.45040995  0.02750067  0.00741294     0.12300
H839        H  0.02979561  0.46591634  0.02421618     0.12300
H840        H  0.04194328  0.46009333  0.99281992     0.12000
H841        H  0.03321453  0.47016607  0.96103702     0.12600
H842        H  0.46169348  0.02039929  0.97574257     0.14500
C843        C  0.14649000  0.82268013  0.70111691    -0.05500
C844        C  0.13161259  0.78434727  0.69368959    -0.05400
C845        C  0.13187842  0.77880648  0.67500401    -0.23600
C846        C  0.14655775  0.81145388  0.66321679     0.18600
C847        C  0.15970249  0.84973004  0.67038286     0.15800
C848        C  0.15883869  0.85498770  0.68907578    -0.18600
C849        C  0.17427487  0.88254560  0.65878844    -0.20500
C850        C  0.17656095  0.87763320  0.64028803    -0.13000
C851        C  0.16366656  0.83979096  0.63272808     0.03700
C852        C  0.14843047  0.80658509  0.64445196    -0.25200
H853        H  0.12054846  0.75860360  0.70246370     0.08700
H854        H  0.12106823  0.74899108  0.66979434     0.12300
H855        H  0.16768965  0.88447537  0.69386570     0.12300
H856        H  0.18448699  0.91212281  0.66404689     0.15900
H857        H  0.18855163  0.90379247  0.63170987     0.12600
H858        H  0.13845657  0.77699094  0.63934481     0.14500
C859        C  0.37818567  0.79358571  0.87442252    -0.05500
C860        C  0.35389242  0.79502183  0.88790117    -0.05400
C861        C  0.36759361  0.82800056  0.89926217    -0.23600
C862        C  0.40558536  0.86060201  0.89708532     0.18600
C863        C  0.43034785  0.85970134  0.88350264     0.15800
C864        C  0.41675068  0.82580726  0.87247314    -0.18600
C865        C  0.46793530  0.89302963  0.88100660    -0.20500
C866        C  0.98064645  0.92693301  0.89176419    -0.13000
C867        C  0.45641009  0.92757477  0.90543856     0.03700
C868        C  0.41902370  0.89427001  0.90814320    -0.25200
H869        H  0.32421374  0.77038872  0.88973058     0.08700
H870        H  0.34825590  0.82823482  0.90957975     0.12300
H871        H  0.43560290  0.82501796  0.86203631     0.12300
H872        H  0.98731266  0.89299057  0.87066355     0.12000
H873        H  0.00977393  0.95239951  0.88968887     0.12600
H874        H  0.40027196  0.89490128  0.91867455     0.14500
C875        C  0.19760243  0.59965402  0.87638913    -0.05500
C876        C  0.19595645  0.57488379  0.89059982    -0.05400
C877        C  0.16289922  0.55622638  0.90166018    -0.23600
C878        C  0.13067389  0.56149948  0.89846642     0.18600
C879        C  0.13164238  0.58561029  0.88392160     0.15800
C880        C  0.16535583  0.60501553  0.87312522    -0.18600
C881        C  0.09876153  0.58964248  0.88037026    -0.20500
C882        C  0.06544362  0.57038010  0.89129197    -0.13000
C883        C  0.06484671  0.54756485  0.90612924     0.03700
C884        C  0.09745894  0.54294976  0.90955848    -0.25200
H885        H  0.22053720  0.57036961  0.89331061     0.08700
H886        H  0.16250268  0.53763607  0.91266322     0.12300
H887        H  0.16622897  0.62362072  0.86200472     0.12300
H888        H  0.09879876  0.60761243  0.86916389     0.12000
H889        H  0.04040764  0.57390934  0.88830841     0.12600
H890        H  0.09672363  0.52444786  0.92068642     0.14500
C891        C  0.40042120  0.62024897  0.87464216    -0.05500
C892        C  0.44181007  0.64155824  0.87457351    -0.05400
C893        C  0.46311769  0.62710271  0.88387153    -0.23600
C894        C  0.44340845  0.59123513  0.89351064     0.18600
C895        C  0.40181332  0.57015849  0.89408959     0.15800
C896        C  0.38068089  0.58469221  0.88463302    -0.18600
C897        C  0.38199506  0.53464191  0.90398029    -0.20500
C898        C  0.40318730  0.51984955  0.91303439    -0.13000
C899        C  0.44435220  0.54007557  0.91214170     0.03700
C900        C  0.46445158  0.57585672  0.90246930    -0.25200
H901        H  0.45774487  0.66898903  0.86700398     0.08700
H902        H  0.49499091  0.64376253  0.88337006     0.12300
H903        H  0.34876971  0.56803466  0.88494361     0.12300
H904        H  0.35013186  0.51819927  0.90461845     0.12000
H905        H  0.38747304  0.49220498  0.92048115     0.12600
H906        H  0.49631746  0.59172180  0.90204158     0.14500
C907        C  0.25592471  0.72556966  0.79123302    -0.05500
C908        C  0.27055365  0.73615072  0.77356552    -0.05400
C909        C  0.25662405  0.75480552  0.76197781    -0.23600
C910        C  0.22725632  0.76263839  0.76771675     0.18600
C911        C  0.21164249  0.75128551  0.78529790     0.15800
C912        C  0.22635430  0.73325436  0.79701205    -0.18600
C913        C  0.18154324  0.75813173  0.79085130    -0.20500
C914        C  0.16740332  0.77651219  0.77922720    -0.13000
C915        C  0.18341391  0.78904554  0.76187608     0.03700
C916        C  0.21333158  0.78169815  0.75619668    -0.25200
H917        H  0.29341238  0.73067748  0.76880416     0.08700
H918        H  0.26885311  0.76312131  0.74852224     0.12300
H919        H  0.21456221  0.72488300  0.81054706     0.12300
H920        H  0.16875998  0.74907755  0.80417352     0.12000
H921        H  0.14343810  0.78032544  0.78384405     0.12600
H922        H  0.22626181  0.79125893  0.74292971     0.14500
C923        C  0.07329265  0.80021774  0.76036790    -0.05500
C924        C  0.07557540  0.81989869  0.77666125    -0.05400
C925        C  0.04298434  0.80595637  0.78798862    -0.23600
C926        C  0.00725709  0.77225805  0.78318394     0.18600
C927        C  0.00421609  0.75266329  0.76667097     0.15800
C928        C  0.03723833  0.76664924  0.75540691    -0.18600
C929        C  0.46825639  0.71922093  0.76178211    -0.20500
C930        C  0.43571485  0.70519821  0.77318801    -0.13000
C931        C  0.43866170  0.72406839  0.78978937     0.03700
C932        C  0.47459572  0.75776328  0.79465694    -0.25200
H933        H  0.10246754  0.84644273  0.78065453     0.08700
H934        H  0.04574603  0.82159128  0.80051343     0.12300
H935        H  0.03500894  0.75087086  0.74300298     0.12300
H936        H  0.96533114  0.70380852  0.74917300     0.12000
H937        H  0.40840007  0.67908704  0.76915880     0.12600
H938        H  0.47715886  0.77276716  0.80736201     0.14500
C939        C  0.25649249  0.52888803  0.80075846    -0.05500
C940        C  0.25327143  0.49538322  0.80968080    -0.05400
C941        C  0.23686626  0.95889782  0.80104353    -0.23600
C942        C  0.22325290  0.95497998  0.78321027     0.18600
C943        C  0.22605296  0.98843529  0.77424167     0.15800
C944        C  0.24285062  0.52487899  0.78287116    -0.18600
C945        C  0.21174504  0.98438692  0.75656157    -0.20500
C946        C  0.19469284  0.94755836  0.74785667    -0.13000
C947        C  0.19215130  0.91402249  0.75650711     0.03700
C948        C  0.20673861  0.91816085  0.77424289    -0.25200
H949        H  0.26362429  0.49762347  0.82344971     0.08700
H950        H  0.23486205  0.93356628  0.80817280     0.12300
H951        H  0.24488930  0.55037495  0.77586427     0.12300
H952        H  0.21330230  0.00961907  0.74952490     0.12000
H953        H  0.18282785  0.94534651  0.73440216     0.12600
H954        H  0.20566201  0.89298475  0.78108327     0.14500
O955        O  0.88642946  0.24795807  0.85634180    -0.78800
C956        C  0.87823552  0.13378326  0.86392373     0.82300
O957        O  0.87121417  0.18527285  0.79628037    -0.79900
O958        O  0.77906336  0.06918969  0.82746203    -0.81400
O959        O  0.74307292  0.15343337  0.85778642    -0.81200
O960        O  0.82661529  0.24066770  0.85890958    -0.79800
Zn961      Zn  0.87754656  0.20006321  0.84154729     1.55700
O962        O  0.75375146  0.10314848  0.86309307    -0.81200
Cd963      Cd  0.79129462  0.19252296  0.84258070     1.59700
Cd964      Cd  0.81626886  0.15976759  0.80798740     1.59600
O965        O  0.77149422  0.21146371  0.82066179    -0.81200
O966        O  0.82218376  0.16731508  0.83471641    -1.91700
Cd967      Cd  0.79991176  0.11420661  0.84646148     1.59900
O968        O  0.78820016  0.18802467  0.79692071    -0.81100
O969        O  0.84153785  0.11005299  0.86164886    -0.79800
C970        C  0.90561731  0.20864486  0.80250693     0.82800
C971        C  0.86330894  0.25904777  0.86264729     0.82400
O972        O  0.89557704  0.16843183  0.85685653    -0.78700
C973        C  0.73388862  0.12043910  0.86538306     0.83200
O974        O  0.91160003  0.21814569  0.81919810    -0.78800
C975        C  0.77270269  0.20710614  0.80362711     0.83400
C976        C  0.77463701  0.06818224  0.81036655     0.83700
O977        O  0.78572132  0.09980945  0.80114040    -0.81300
C978        C  0.64905712  0.32744625  0.72165678     0.86200
C979        C  0.60831746  0.31076109  0.73041667    -0.54000
C980        C  0.60933785  0.31424430  0.74885713     0.09200
C981        C  0.65120864  0.33395424  0.75680092     0.20100
C982        C  0.67328879  0.37057268  0.72870613    -0.54700
C983        C  0.67385726  0.37421134  0.74703901     0.09300
C984        C  0.66769607  0.30579484  0.73131600    -0.54300
C985        C  0.66860260  0.30873121  0.74976336     0.09800
H986        H  0.58124952  0.29797210  0.72258778     0.14300
H987        H  0.65212794  0.33674640  0.77166657     0.00100
H988        H  0.69002746  0.39638380  0.72025453     0.14600
H989        H  0.67816948  0.28870287  0.72408980     0.14400
C990        C  0.49203777  0.99997561  0.94552432     0.86200
C991        C  0.96822803  0.01961878  0.93929577    -0.54000
C992        C  0.96651553  0.02244106  0.92096158     0.09200
C993        C  0.48826297  0.00536082  0.91044572     0.20100
C994        C  0.97215337  0.46056663  0.93586858    -0.54700
C995        C  0.97033200  0.46312077  0.91756590     0.09300
C996        C  0.53230100  0.02464764  0.93631356    -0.54300
C997        C  0.53034781  0.02723785  0.91797409     0.09800
H998        H  0.95386555  0.03055448  0.94810264     0.14300
H999        H  0.48625456  0.00718545  0.89553329     0.00100
H1000       H  0.96187333  0.43241906  0.94281948     0.14600
H1001       H  0.55998695  0.03850467  0.94371507     0.14400
O1002       O  0.00268167  0.43261554  0.47640156    -0.78800
C1003       C  0.59193328  0.05621471  0.47077503     0.82300
O1004       O  0.52765422  0.47469330  0.53765799    -0.79900
O1005       O  0.55024053  0.09889581  0.51413560    -0.81400
O1006       O  0.94030767  0.01237931  0.47187659    -0.81200
O1007       O  0.94429700  0.42836340  0.47351234    -0.79800
Zn1008     Zn  0.53526039  0.48145014  0.49199383     1.55700
O1009       O  0.98877077  0.07364460  0.47825254    -0.81200
Cd1010     Cd  0.95048668  0.47575949  0.48829167     1.59700
Cd1011     Cd  0.99760855  0.50079351  0.52650975     1.59600
O1012       O  0.90696858  0.45534114  0.50760844    -0.81200
O1013       O  0.00346816  0.50438026  0.49965733    -1.91700
Cd1014     Cd  0.52799885  0.06153616  0.49204387     1.59900
O1015       O  0.93861425  0.46962366  0.53405333    -0.81100
O1016       O  0.57378982  0.07466978  0.47465089    -0.79800
C1017       C  0.54961715  0.46288745  0.53067715     0.82800
C1018       C  0.96759621  0.41540354  0.47016977     0.82400
O1019       O  0.58160981  0.52157039  0.47700235    -0.78700
C1020       C  0.95662576  0.04998490  0.47015321     0.83200
O1021       O  0.55526405  0.46427623  0.51365455    -0.78800
C1022       C  0.90680232  0.45492631  0.52482647     0.83400
C1023       C  0.54408566  0.09287228  0.53104779     0.83700
O1024       O  0.52325551  0.05804672  0.53764470    -0.81300
C1025       C  0.83205040  0.16876194  0.38854993     0.86200
C1026       C  0.79160288  0.14668526  0.39782025    -0.54000
C1027       C  0.79345470  0.14974069  0.41620487     0.09200
C1028       C  0.83544571  0.17534289  0.42372234     0.20100
C1029       C  0.85009338  0.21194844  0.39537054    -0.54700
C1030       C  0.85188870  0.21507199  0.41370398     0.09300
C1031       C  0.85657288  0.15286678  0.39779577    -0.54300
C1032       C  0.85850344  0.15643279  0.41617685     0.09800
H1033       H  0.76403108  0.12936883  0.39052955     0.14300
H1034       H  0.83667350  0.17828288  0.43867386     0.00100
H1035       H  0.86027058  0.23811023  0.38694822     0.14600
H1036       H  0.87145597  0.14026340  0.39034896     0.14400
C1037       C  0.66793657  0.33796280  0.61229049     0.86200
C1038       C  0.65196085  0.29667515  0.60346411    -0.54000
C1039       C  0.65655678  0.29800338  0.58510129     0.09200
C1040       C  0.67683550  0.34036754  0.57731780     0.20100
C1041       C  0.71102943  0.36185237  0.60610317    -0.54700
C1042       C  0.71597844  0.36292359  0.58779463     0.09300
C1043       C  0.64678913  0.35624660  0.60202017    -0.54300
C1044       C  0.65155350  0.35804747  0.58369550     0.09800
H1045       H  0.63820198  0.26875389  0.61072159     0.14300
H1046       H  0.68050546  0.34106691  0.56252531     0.00100
H1047       H  0.73541723  0.37632025  0.61557105     0.14600
H1048       H  0.62886139  0.36609006  0.60888214     0.14400
O1049       O  0.74349360  0.38034395  0.14053522    -0.78800
C1050       C  0.63287983  0.37091117  0.13631278     0.82300
O1051       O  0.69909127  0.37930697  0.20300644    -0.79900
O1052       O  0.57550252  0.27422938  0.17438561    -0.81400
O1053       O  0.66115603  0.23995488  0.14341258    -0.81200
O1054       O  0.74812234  0.32583048  0.14302196    -0.79800
Zn1055     Zn  0.70081380  0.37356510  0.15716766     1.55700
O1056       O  0.60896436  0.24729371  0.13897637    -0.81200
Cd1057     Cd  0.69863406  0.29018773  0.15866942     1.59700
Cd1058     Cd  0.66709717  0.32003354  0.19334075     1.59600
O1059       O  0.71634040  0.27197870  0.18116717    -0.81200
O1060       O  0.67149208  0.31988006  0.16621179    -1.91700
Cd1061     Cd  0.61830635  0.29460377  0.15485652     1.59900
O1062       O  0.69214573  0.28838742  0.20474876    -0.81100
O1063       O  0.61049641  0.33372444  0.13886467    -0.79800
C1064       C  0.72220576  0.41148952  0.19453870     0.82800
C1065       C  0.76005218  0.36047162  0.13656965     0.82400
O1066       O  0.66724959  0.38965827  0.14317050    -0.78700
C1067       C  0.62760643  0.22886227  0.13624181     0.83200
O1068       O  0.72582888  0.41196100  0.17745581    -0.78800
C1069       C  0.71097320  0.27246291  0.19811557     0.83400
C1070       C  0.57540420  0.27524982  0.19158819     0.83700
O1071       O  0.60735858  0.29165826  0.20085079    -0.81300
C1072       C  0.49951823  0.98501891  0.05464991     0.86200
C1073       C  0.51936879  0.46062552  0.06011282    -0.54000
C1074       C  0.52295685  0.45817156  0.07832259     0.09200
C1075       C  0.50558519  0.97912310  0.08955825     0.20100
C1076       C  0.95962525  0.46318310  0.06464638    -0.54700
C1077       C  0.96293522  0.46009919  0.08287507     0.09300
C1078       C  0.52311080  0.02517400  0.06439747    -0.54300
C1079       C  0.52646348  0.02236966  0.08267386     0.09800
H1080       H  0.52936918  0.44601890  0.05093474     0.14300
H1081       H  0.50793425  0.97631601  0.10437678     0.00100
H1082       H  0.93140840  0.45057240  0.05774135     0.14600
H1083       H  0.53658881  0.05339118  0.05725063     0.14400
C1084       C  0.83996717  0.15906965  0.27935984     0.86200
C1085       C  0.88115869  0.17625692  0.27143041    -0.54000
C1086       C  0.88214639  0.17215320  0.25315290     0.09200
C1087       C  0.84065308  0.15108550  0.24431050     0.20100
C1088       C  0.82113910  0.17916636  0.26879556    -0.54700
C1089       C  0.82104707  0.17514046  0.25043963     0.09300
C1090       C  0.81780256  0.11548783  0.27276764    -0.54300
C1091       C  0.81764363  0.11103278  0.25444124     0.09800
H1092       H  0.90747973  0.19118855  0.27976971     0.14300
H1093       H  0.84071588  0.14741791  0.22948482     0.00100
H1094       H  0.80947216  0.19579342  0.27549989     0.14600
H1095       H  0.80370371  0.08983077  0.28148042     0.14400
C1096       C  0.79396902  0.37881797  0.12422882    -0.05500
C1097       C  0.79493247  0.40427159  0.11049705    -0.05400
C1098       C  0.82785158  0.42444404  0.09947254    -0.23600
C1099       C  0.86079876  0.42020314  0.10224787     0.18600
C1100       C  0.86022514  0.39456956  0.11598099     0.15800
C1101       C  0.82644489  0.37341523  0.12671360    -0.18600
C1102       C  0.89377591  0.39130021  0.11895273    -0.20500
C1103       C  0.92751062  0.41326712  0.10844368    -0.13000
C1104       C  0.92803548  0.43839722  0.09465566     0.03700
C1105       C  0.89448229  0.44165055  0.09163710    -0.25200
H1106       H  0.77012915  0.40871013  0.10834270     0.08700
H1107       H  0.82781687  0.44392842  0.08900523     0.12300
H1108       H  0.82602312  0.35415123  0.13741604     0.12300
H1109       H  0.89397430  0.37190237  0.12941788     0.12000
H1110       H  0.95287799  0.40988928  0.11082291     0.12600
H1111       H  0.89478940  0.46133548  0.08117466     0.14500
C1112       C  0.60949355  0.19412498  0.12406447    -0.05500
C1113       C  0.58824809  0.19494953  0.10893416    -0.05400
C1114       C  0.56896109  0.16195948  0.09761205    -0.23600
C1115       C  0.56980557  0.12713483  0.10144720     0.18600
C1116       C  0.59112859  0.12581904  0.11662191     0.15800
C1117       C  0.61151761  0.15968294  0.12770979    -0.18600
C1118       C  0.59082340  0.09036517  0.12060934    -0.20500
C1119       C  0.56946902  0.05661854  0.10972796    -0.13000
C1120       C  0.54858491  0.05787598  0.09450009     0.03700
C1121       C  0.54901457  0.09342421  0.09048025    -0.25200
H1122       H  0.58657210  0.22130820  0.10585631     0.08700
H1123       H  0.55279828  0.16346251  0.08603049     0.12300
H1124       H  0.62759493  0.15878115  0.13946842     0.12300
H1125       H  0.60680380  0.08862938  0.13220890     0.12000
H1126       H  0.56981265  0.02972746  0.11313364     0.12600
H1127       H  0.53237790  0.09466582  0.07903821     0.14500
C1128       C  0.61875268  0.39297239  0.12524935    -0.05500
C1129       C  0.63964189  0.43484657  0.12520988    -0.05400
C1130       C  0.62566579  0.45598677  0.11546423    -0.23600
C1131       C  0.59066188  0.43565253  0.10549493     0.18600
C1132       C  0.57008028  0.39354966  0.10489796     0.15800
C1133       C  0.58417461  0.37250066  0.11483065    -0.18600
C1134       C  0.53539797  0.37327903  0.09461896    -0.20500
C1135       C  0.52064759  0.39450112  0.08546896    -0.13000
C1136       C  0.54026615  0.43612063  0.08660314     0.03700
C1137       C  0.57546563  0.45665103  0.09639647    -0.25200
H1138       H  0.66648101  0.45135953  0.13301718     0.08700
H1139       H  0.64196025  0.48825058  0.11592948     0.12300
H1140       H  0.56804225  0.34020307  0.11455187     0.12300
H1141       H  0.01935639  0.34102016  0.09390241     0.12000
H1142       H  0.99337619  0.37848113  0.07791885     0.12600
H1143       H  0.59075840  0.98940601  0.09723662     0.14500
C1144       C  0.72717796  0.25372216  0.21024491    -0.05500
C1145       C  0.71287227  0.24223652  0.22789433    -0.05400
C1146       C  0.72749168  0.22345488  0.23903572    -0.23600
C1147       C  0.75708136  0.21632665  0.23282184     0.18600
C1148       C  0.77190784  0.22803961  0.21518140     0.15800
C1149       C  0.75676932  0.24642200  0.20399875    -0.18600
C1150       C  0.80171094  0.22125293  0.20902949    -0.20500
C1151       C  0.81716063  0.20355766  0.22034058    -0.13000
C1152       C  0.80309170  0.19212615  0.23802735     0.03700
C1153       C  0.77234568  0.19804807  0.24400696    -0.25200
H1154       H  0.68997549  0.24727088  0.23299925     0.08700
H1155       H  0.71576302  0.21465768  0.25255410     0.12300
H1156       H  0.76829049  0.25531708  0.19045318     0.12300
H1157       H  0.81344515  0.23008102  0.19552228     0.12000
H1158       H  0.84073647  0.19975190  0.21527241     0.12600
H1159       H  0.76008616  0.18845885  0.25737624     0.14500
C1160       C  0.79589120  0.07106762  0.24554834    -0.05500
C1161       C  0.76146558  0.04012514  0.25346528    -0.05400
C1162       C  0.74101500  0.00243152  0.24551290    -0.23600
C1163       C  0.75410285  0.99477910  0.22927959     0.18600
C1164       C  0.78836736  0.02561543  0.22104361     0.15800
C1165       C  0.80913866  0.06343075  0.22924554    -0.18600
C1166       C  0.80109417  0.01818865  0.20463960    -0.20500
C1167       C  0.77963831  0.48087324  0.19617589    -0.13000
C1168       C  0.74564133  0.44984946  0.20430369     0.03700
C1169       C  0.73356467  0.45684327  0.22105934    -0.25200
H1170       H  0.74973037  0.04507707  0.26575441     0.08700
H1171       H  0.71466129  0.97939763  0.25196710     0.12300
H1172       H  0.83572118  0.08660653  0.22301975     0.12300
H1173       H  0.82725870  0.04131245  0.19810696     0.12000
H1174       H  0.78979740  0.47631806  0.18330244     0.12600
H1175       H  0.70730418  0.43337379  0.22740186     0.14500
C1176       C  0.53667829  0.25659805  0.20074545    -0.05500
C1177       C  0.50355049  0.25266897  0.19146590    -0.05400
C1178       C  0.96659141  0.23455276  0.19965361    -0.23600
C1179       C  0.96180256  0.21941090  0.21721723     0.18600
C1180       C  0.99469114  0.22243252  0.22655748     0.15800
C1181       C  0.53198642  0.24136508  0.21835932    -0.18600
C1182       C  0.98967021  0.20642691  0.24393957    -0.20500
C1183       C  0.95282284  0.18878557  0.25219838    -0.13000
C1184       C  0.92015559  0.18714884  0.24337646     0.03700
C1185       C  0.92481692  0.20180736  0.22566211    -0.25200
H1186       H  0.50630510  0.26403042  0.17785907     0.08700
H1187       H  0.94175254  0.23240416  0.19223244     0.12300
H1188       H  0.55715482  0.24365778  0.22554856     0.12300
H1189       H  0.51431386  0.20778803  0.25122186     0.12000
H1190       H  0.95007806  0.17659306  0.26561390     0.12600
H1191       H  0.90018451  0.20079134  0.21862531     0.14500
C1192       C  0.84133778  0.16687794  0.29964107    -0.05500
C1193       C  0.86185190  0.20657189  0.30586277    -0.05400
C1194       C  0.86411724  0.21538531  0.32427060    -0.23600
C1195       C  0.84582181  0.18464694  0.33694537     0.18600
C1196       C  0.82533822  0.14478619  0.33095191     0.15800
C1197       C  0.82310557  0.13615215  0.31248661    -0.18600
C1198       C  0.80752123  0.11390646  0.34353477    -0.20500
C1199       C  0.80989515  0.12237641  0.36191128    -0.13000
C1200       C  0.82961636  0.16192328  0.36821638     0.03700
C1201       C  0.84785451  0.19304262  0.35548772    -0.25200
H1202       H  0.87625410  0.23092609  0.29635017     0.08700
H1203       H  0.88015056  0.24621722  0.32857547     0.12300
H1204       H  0.80702723  0.10533400  0.30857059     0.12300
H1205       H  0.79192037  0.08306689  0.33917927     0.12000
H1206       H  0.79630914  0.09780689  0.37134072     0.12600
H1207       H  0.86449199  0.22381013  0.35968552     0.14500
C1208       C  0.62626564  0.07564012  0.45864480    -0.05500
C1209       C  0.62817245  0.10227720  0.44527370    -0.05400
C1210       C  0.66083236  0.12129144  0.43392654    -0.23600
C1211       C  0.69257940  0.11475129  0.43605557     0.18600
C1212       C  0.69120888  0.08849462  0.44967389     0.15800
C1213       C  0.65775108  0.06853885  0.46064071    -0.18600
C1214       C  0.72361666  0.08315799  0.45228140    -0.20500
C1215       C  0.75713399  0.10374267  0.44155324    -0.13000
C1216       C  0.75831031  0.12909447  0.42776950     0.03700
C1217       C  0.72588391  0.13435867  0.42497090    -0.25200
H1218       H  0.60420068  0.10810415  0.44349702     0.08700
H1219       H  0.66145246  0.14146964  0.42363606     0.12300
H1220       H  0.65669598  0.04840934  0.47107036     0.12300
H1221       H  0.72318864  0.06335414  0.46270802     0.12000
H1222       H  0.78191012  0.09935804  0.44378105     0.12600
H1223       H  0.72698866  0.15427713  0.41442432     0.14500
C1224       C  0.86860120  0.25348599  0.42298131    -0.05500
C1225       C  0.84677781  0.27279139  0.42433039    -0.05400
C1226       C  0.86242496  0.30909475  0.43341635    -0.23600
C1227       C  0.90015885  0.32643897  0.44115537     0.18600
C1228       C  0.92264390  0.30748289  0.43939184     0.15800
C1229       C  0.90660075  0.27096066  0.43031534    -0.18600
C1230       C  0.96053832  0.32516712  0.44692208    -0.20500
C1231       C  0.97561827  0.36075068  0.45661635    -0.13000
C1232       C  0.95299554  0.37917219  0.45894392     0.03700
C1233       C  0.91547797  0.36207956  0.45086937    -0.25200
H1234       H  0.81748642  0.25948056  0.41852322     0.08700
H1235       H  0.84494377  0.32338555  0.43454156     0.12300
H1236       H  0.92356034  0.25613161  0.42890862     0.12300
H1237       H  0.97827604  0.31117406  0.44554775     0.12000
H1238       H  0.00468191  0.37342730  0.46257985     0.12600
H1239       H  0.89783198  0.37613674  0.45235744     0.14500
C1240       C  0.88060120  0.14309918  0.42771345    -0.05500
C1241       C  0.90294664  0.16623455  0.44247633    -0.05400
C1242       C  0.92371117  0.15360767  0.45342659    -0.23600
C1243       C  0.92166211  0.11709894  0.45003339     0.18600
C1244       C  0.89867905  0.09339924  0.43535023     0.15800
C1245       C  0.87881088  0.10677433  0.42415916    -0.18600
C1246       C  0.89534890  0.05632512  0.43223662    -0.20500
C1247       C  0.91425417  0.04257663  0.44364596    -0.13000
C1248       C  0.93756357  0.06589723  0.45817280     0.03700
C1249       C  0.94154760  0.10349166  0.46121265    -0.25200
H1250       H  0.90471233  0.19432499  0.44545521     0.08700
H1251       H  0.94094726  0.17212574  0.46463765     0.12300
H1252       H  0.86109844  0.08844608  0.41299907     0.12300
H1253       H  0.87775241  0.03774467  0.42110248     0.12000
H1254       H  0.91087283  0.01359580  0.44099136     0.12600
H1255       H  0.95910432  0.12150448  0.47248356     0.14500
C1256       C  0.86851678  0.43795453  0.53421471    -0.05500
C1257       C  0.83572058  0.43516351  0.52511507    -0.05400
C1258       C  0.79989004  0.42118214  0.53398371    -0.23600
C1259       C  0.79591520  0.40903814  0.55205297     0.18600
C1260       C  0.82835437  0.41081586  0.56124688     0.15800
C1261       C  0.86457604  0.42562036  0.55233743    -0.18600
C1262       C  0.82394216  0.39769711  0.57918145    -0.20500
C1263       C  0.78770602  0.38271165  0.58787188    -0.13000
C1264       C  0.75523919  0.38107826  0.57890575     0.03700
C1265       C  0.75991414  0.39487449  0.56100061    -0.25200
H1266       H  0.83797662  0.44461849  0.51118388     0.08700
H1267       H  0.77527575  0.41982593  0.52669233     0.12300
H1268       H  0.88955315  0.42733993  0.55945519     0.12300
H1269       H  0.84835652  0.39848627  0.58641421     0.12000
H1270       H  0.78501071  0.37155161  0.60150040     0.12600
H1271       H  0.73569631  0.39477972  0.55393810     0.14500
C1272       C  0.56125356  0.12734130  0.54338310    -0.05500
C1273       C  0.54234503  0.12554340  0.55968993    -0.05400
C1274       C  0.55746937  0.15849816  0.57114709    -0.23600
C1275       C  0.59219326  0.19355965  0.56664438     0.18600
C1276       C  0.61202604  0.19539802  0.55047590     0.15800
C1277       C  0.59623742  0.16238627  0.53884561    -0.18600
C1278       C  0.64717291  0.23028235  0.54619743    -0.20500
C1279       C  0.66213230  0.26325001  0.55769625    -0.13000
C1280       C  0.64205126  0.26205181  0.57357000     0.03700
C1281       C  0.60715987  0.22688290  0.57799615    -0.25200
H1282       H  0.01530368  0.09884834  0.56340215     0.08700
H1283       H  0.54196390  0.15658624  0.58350601     0.12300
H1284       H  0.61120802  0.16384308  0.52637942     0.12300
H1285       H  0.66300553  0.23209769  0.53397632     0.12000
H1286       H  0.68956437  0.28964375  0.55414896     0.12600
H1287       H  0.59102983  0.22565807  0.59003820     0.14500
C1288       C  0.56913861  0.44742660  0.54270508    -0.05500
C1289       C  0.57649832  0.45928652  0.56091903    -0.05400
C1290       C  0.59499477  0.44502902  0.57237541    -0.23600
C1291       C  0.60574575  0.41794642  0.56594314     0.18600
C1292       C  0.59805231  0.40537593  0.54773947     0.15800
C1293       C  0.58035228  0.42063131  0.53616230    -0.18600
C1294       C  0.60773611  0.37737273  0.54150106    -0.20500
C1295       C  0.62470769  0.36182837  0.55317983    -0.13000
C1296       C  0.63321979  0.37458730  0.57127350     0.03700
C1297       C  0.62375933  0.40302747  0.57746737    -0.25200
H1298       H  0.56832507  0.48002250  0.56627026     0.08700
H1299       H  0.60054838  0.45491020  0.58631867     0.12300
H1300       H  0.57454946  0.41101376  0.52218132     0.12300
H1301       H  0.60163214  0.36700620  0.52763678     0.12000
H1302       H  0.63037451  0.33923226  0.54798839     0.12600
H1303       H  0.63053881  0.41391890  0.59122158     0.14500
C1304       C  0.49481197  0.99026984  0.03452246    -0.05500
C1305       C  0.97202735  0.50747302  0.02931756    -0.05400
C1306       C  0.96669198  0.51314037  0.01111290    -0.23600
C1307       C  0.98434149  0.00165432  0.99757135     0.18600
C1308       C  0.50683673  0.98411184  0.00264509     0.15800
C1309       C  0.51199523  0.97856808  0.02096707    -0.18600
C1310       C  0.52402399  0.97240576  0.98930631    -0.20500
C1311       C  0.51881513  0.97784232  0.97111079    -0.13000
C1312       C  0.49640188  0.99519881  0.96571251     0.03700
C1313       C  0.97896014  0.50754635  0.97928370    -0.25200
H1314       H  0.95873158  0.51702284  0.03944400     0.08700
H1315       H  0.94929789  0.52669465  0.00759487     0.12300
H1316       H  0.52992591  0.96580095  0.02428813     0.12300
H1317       H  0.54147099  0.95897343  0.99292565     0.12000
H1318       H  0.53242532  0.96839908  0.96109312     0.12600
H1319       H  0.96119653  0.52059130  0.97586827     0.14500
C1320       C  0.64677076  0.32220125  0.70107474    -0.05500
C1321       C  0.63248064  0.28403010  0.69358082    -0.05400
C1322       C  0.63297474  0.27873043  0.67488779    -0.23600
C1323       C  0.64725227  0.31148240  0.66317411     0.18600
C1324       C  0.65967521  0.34954199  0.67040683     0.15800
C1325       C  0.65855351  0.35456314  0.68910885    -0.18600
C1326       C  0.67386153  0.38247216  0.65889006    -0.20500
C1327       C  0.67645490  0.37782964  0.64038517    -0.13000
C1328       C  0.66418422  0.34019060  0.63275330     0.03700
C1329       C  0.64939524  0.30689115  0.64440967    -0.25200
H1330       H  0.62172673  0.25821356  0.70230352     0.08700
H1331       H  0.62269341  0.24910227  0.66962517     0.12300
H1332       H  0.66669286  0.38369715  0.69394510     0.12300
H1333       H  0.68351183  0.41180664  0.66419270     0.15900
H1334       H  0.68815330  0.40408303  0.63185606     0.12600
H1335       H  0.64003329  0.27749928  0.63926800     0.14500
C1336       C  0.87889915  0.29376090  0.87487300    -0.05500
C1337       C  0.85452645  0.29493022  0.88838610    -0.05400
C1338       C  0.86803378  0.32786110  0.89976907    -0.23600
C1339       C  0.90587670  0.36069664  0.89755765     0.18600
C1340       C  0.93074832  0.35998849  0.88397776     0.15800
C1341       C  0.91738194  0.32612007  0.87295275    -0.18600
C1342       C  0.96816679  0.39352536  0.88143563    -0.20500
C1343       C  0.48055474  0.42750479  0.89209568    -0.13000
C1344       C  0.95618377  0.42802588  0.90573241     0.03700
C1345       C  0.91902179  0.39445009  0.90853737    -0.25200
H1346       H  0.82491821  0.27015403  0.89019996     0.08700
H1347       H  0.84862199  0.32791978  0.91009494     0.12300
H1348       H  0.93629391  0.32550746  0.86249934     0.12300
H1349       H  0.48763332  0.39361726  0.87110579     0.12000
H1350       H  0.50954282  0.45314783  0.88996703     0.12600
H1351       H  0.90018828  0.39495701  0.91906020     0.14500
C1352       C  0.69909803  0.10134837  0.87713293    -0.05500
C1353       C  0.69795233  0.07746144  0.89163948    -0.05400
C1354       C  0.66488617  0.05871402  0.90269902    -0.23600
C1355       C  0.63215070  0.06297660  0.89919949     0.18600
C1356       C  0.63274594  0.08638774  0.88442666     0.15800
C1357       C  0.66647555  0.10595101  0.87365063    -0.18600
C1358       C  0.59942041  0.08943215  0.88057304    -0.20500
C1359       C  0.56595477  0.06976710  0.89137086    -0.13000
C1360       C  0.56559116  0.04751045  0.90639311     0.03700
C1361       C  0.59874472  0.04399953  0.91016646    -0.25200
H1362       H  0.72286768  0.07360244  0.89453305     0.08700
H1363       H  0.66482312  0.04071925  0.91389713     0.12300
H1364       H  0.66700013  0.12391099  0.86231916     0.12300
H1365       H  0.59919199  0.10687658  0.86919846     0.12000
H1366       H  0.54058667  0.07252483  0.88811278     0.12600
H1367       H  0.59828087  0.02595416  0.92143812     0.14500
C1368       C  0.90100972  0.12002991  0.87471167    -0.05500
C1369       C  0.94237571  0.14065380  0.87421260    -0.05400
C1370       C  0.96359822  0.12589004  0.88334603    -0.23600
C1371       C  0.94383966  0.09041546  0.89326288     0.18600
C1372       C  0.90230221  0.07007210  0.89430053     0.15800
C1373       C  0.88123554  0.08489818  0.88499547    -0.18600
C1374       C  0.88248025  0.03499487  0.90449640    -0.20500
C1375       C  0.90360012  0.01993213  0.91340947    -0.13000
C1376       C  0.94468901  0.03941679  0.91205993     0.03700
C1377       C  0.96478482  0.07474713  0.90207123    -0.25200
H1378       H  0.95833068  0.16774023  0.86640855     0.08700
H1379       H  0.99543768  0.14199554  0.88249703     0.12300
H1380       H  0.84934924  0.06880508  0.88564886     0.12300
H1381       H  0.85066429  0.01912060  0.90549749     0.12000
H1382       H  0.88786958  0.99266539  0.92112103     0.12600
H1383       H  0.99660532  0.09013394  0.90133079     0.14500
C1384       C  0.75624854  0.22511687  0.79121904    -0.05500
C1385       C  0.76997899  0.23457218  0.77336612    -0.05400
C1386       C  0.75573768  0.25284396  0.76171831    -0.23600
C1387       C  0.72695812  0.26142252  0.76759185     0.18600
C1388       C  0.71216035  0.25109368  0.78534720     0.15800
C1389       C  0.72716921  0.23343037  0.79710597    -0.18600
C1390       C  0.68259144  0.25861632  0.79103949    -0.20500
C1391       C  0.66822587  0.27673140  0.77938454    -0.13000
C1392       C  0.68352942  0.28838569  0.76186276     0.03700
C1393       C  0.71286944  0.28028186  0.75604382    -0.25200
H1394       H  0.79239041  0.22853455  0.76849653     0.08700
H1395       H  0.76729689  0.26032055  0.74811962     0.12300
H1396       H  0.71601733  0.22588480  0.81077559     0.12300
H1397       H  0.67041031  0.25031758  0.80450099     0.12000
H1398       H  0.64466576  0.28105439  0.78413579     0.12600
H1399       H  0.72529522  0.28914593  0.74265478     0.14500
C1400       C  0.57377441  0.30054934  0.76030891    -0.05500
C1401       C  0.57623371  0.32047968  0.77654735    -0.05400
C1402       C  0.54375189  0.30670988  0.78793758    -0.23600
C1403       C  0.50798132  0.27292629  0.78325116     0.18600
C1404       C  0.50476053  0.25317997  0.76676081     0.15800
C1405       C  0.53764839  0.26701544  0.75543010    -0.18600
C1406       C  0.96878311  0.21967082  0.76197442    -0.20500
C1407       C  0.93641055  0.20566799  0.77347336    -0.13000
C1408       C  0.93952716  0.22463603  0.79006648     0.03700
C1409       C  0.97546884  0.25845070  0.79482448    -0.25200
H1410       H  0.60320507  0.34703139  0.78046139     0.08700
H1411       H  0.54665272  0.32248947  0.80043215     0.12300
H1412       H  0.53528912  0.25108245  0.74305953     0.12300
H1413       H  0.46572383  0.20416261  0.74937957     0.12000
H1414       H  0.90908488  0.17948287  0.76951854     0.12600
H1415       H  0.97815349  0.27353746  0.80751752     0.14500
C1416       C  0.75651446  0.02919804  0.80101882    -0.05500
C1417       C  0.75309041  0.99557203  0.80989984    -0.05400
C1418       C  0.73719155  0.45868318  0.80086646    -0.23600
C1419       C  0.72356571  0.45463510  0.78303266     0.18600
C1420       C  0.72618470  0.48797475  0.77402570     0.15800
C1421       C  0.74290037  0.02532792  0.78312491    -0.18600
C1422       C  0.71188653  0.48380864  0.75634135    -0.20500
C1423       C  0.69503345  0.44697555  0.74766425    -0.13000
C1424       C  0.69267186  0.41356656  0.75635469     0.03700
C1425       C  0.70722438  0.41780666  0.77409745    -0.25200
H1426       H  0.76342682  0.99770545  0.82366555     0.08700
H1427       H  0.73531854  0.43343869  0.80802554     0.12300
H1428       H  0.74509189  0.05091907  0.77614660     0.12300
H1429       H  0.71330437  0.50895181  0.74927975     0.12000
H1430       H  0.68315784  0.44464355  0.73419867     0.12600
H1431       H  0.70624544  0.39270012  0.78096526     0.14500
O1432       O  0.88564483  0.74783148  0.85583109    -0.78800
C1433       C  0.87761112  0.63379418  0.86375169     0.82300
O1434       O  0.87024640  0.68486302  0.79592089    -0.79900
O1435       O  0.77918681  0.56895582  0.82713612    -0.81400
O1436       O  0.74198800  0.65236880  0.85741995    -0.81200
O1437       O  0.82566685  0.73992425  0.85881362    -0.79800
Zn1438     Zn  0.87670048  0.69973387  0.84121893     1.55700
O1439       O  0.75266467  0.60201398  0.86250290    -0.81200
Cd1440     Cd  0.79038799  0.69187727  0.84242326     1.59700
Cd1441     Cd  0.81533041  0.65941111  0.80770236     1.59600
O1442       O  0.77077895  0.71124882  0.82060924    -0.81200
O1443       O  0.82137195  0.66688788  0.83442988    -1.91700
Cd1444     Cd  0.79936340  0.61379089  0.84612915     1.59900
O1445       O  0.78735719  0.68792649  0.79677571    -0.81100
O1446       O  0.84095557  0.60993531  0.86144186    -0.79800
C1447       C  0.90466106  0.70809883  0.80217419     0.82800
C1448       C  0.86247838  0.75868578  0.86230263     0.82400
O1449       O  0.89486683  0.66840258  0.85664816    -0.78700
C1450       C  0.73265718  0.61914028  0.86481216     0.83200
O1451       O  0.91062074  0.71751416  0.81887105    -0.78800
C1452       C  0.77202967  0.70710279  0.80356304     0.83400
C1453       C  0.77436964  0.56787532  0.81007266     0.83700
O1454       O  0.78482948  0.59941642  0.80086599    -0.81300
C1455       C  0.64876868  0.82799187  0.72170691     0.86200
C1456       C  0.60797931  0.81095322  0.73047219    -0.54000
C1457       C  0.60893944  0.81431888  0.74891776     0.09200
C1458       C  0.65083252  0.83433480  0.75686411     0.20100
C1459       C  0.67266791  0.87111944  0.72879920    -0.54700
C1460       C  0.67325782  0.87468278  0.74713952     0.09300
C1461       C  0.66769381  0.80658572  0.73134395    -0.54300
C1462       C  0.66852713  0.80942794  0.74979187     0.09800
H1463       H  0.58090735  0.79797790  0.72263882     0.14300
H1464       H  0.65173960  0.83699857  0.77173721     0.00100
H1465       H  0.68924909  0.89704214  0.72036425     0.14600
H1466       H  0.67833676  0.78964091  0.72411099     0.14400
C1467       C  0.49206808  0.50100361  0.94557961     0.86200
C1468       C  0.96825112  0.52066598  0.93938666    -0.54000
C1469       C  0.96623185  0.52319284  0.92104799     0.09200
C1470       C  0.48768962  0.50585391  0.91050131     0.20100
C1471       C  0.97234839  0.95968244  0.93569014    -0.54700
C1472       C  0.97082192  0.96252694  0.91738360     0.09300
C1473       C  0.53218687  0.52547543  0.93620792    -0.54300
C1474       C  0.52987514  0.52777140  0.91786952     0.09800
H1475       H  0.95417396  0.53187093  0.94822156     0.14300
H1476       H  0.48547517  0.50749378  0.89558846     0.00100
H1477       H  0.96186940  0.93142305  0.94256715     0.14600
H1478       H  0.56003206  0.53932962  0.94348233     0.14400
O1479       O  0.00220685  0.93293428  0.47655966    -0.78800
C1480       C  0.59205515  0.55604793  0.47066191     0.82300
O1481       O  0.52821805  0.97541499  0.53782537    -0.79900
O1482       O  0.55033118  0.59840241  0.51398663    -0.81400
O1483       O  0.94054686  0.51193182  0.47130220    -0.81200
O1484       O  0.94391132  0.92882463  0.47357819    -0.79800
Zn1485     Zn  0.53501833  0.98168034  0.49214617     1.55700
O1486       O  0.98843743  0.57318010  0.47814534    -0.81200
Cd1487     Cd  0.95040701  0.97607055  0.48863074     1.59700
Cd1488     Cd  0.99782865  0.00133425  0.52680343     1.59600
O1489       O  0.90714742  0.95534984  0.50803886    -0.81200
O1490       O  0.00347570  0.00478194  0.49991673    -1.91700
Cd1491     Cd  0.52785632  0.56112280  0.49185764     1.59900
O1492       O  0.93882801  0.96973891  0.53447742    -0.81100
O1493       O  0.57365724  0.57428003  0.47447828    -0.79800
C1494       C  0.54976729  0.96317468  0.53076353     0.82800
C1495       C  0.96718148  0.91582314  0.47026212     0.82400
O1496       O  0.58131383  0.02168631  0.47709882    -0.78700
C1497       C  0.95657508  0.54956886  0.46982559     0.83200
O1498       O  0.55502136  0.96426139  0.51371688    -0.78800
C1499       C  0.90699073  0.95485013  0.52525421     0.83400
C1500       C  0.54422670  0.59222665  0.53089522     0.83700
O1501       O  0.52327932  0.55736666  0.53742465    -0.81300
C1502       C  0.83238463  0.66907902  0.38848186     0.86200
C1503       C  0.79188876  0.64701793  0.39771134    -0.54000
C1504       C  0.79364975  0.65031430  0.41609119     0.09200
C1505       C  0.83558209  0.67608047  0.42364479     0.20100
C1506       C  0.85026479  0.71233079  0.39518592    -0.54700
C1507       C  0.85200053  0.71572724  0.41351104     0.09300
C1508       C  0.85691959  0.65337529  0.39787981    -0.54300
C1509       C  0.85866842  0.65702121  0.41626565     0.09800
H1510       H  0.76437144  0.62949366  0.39040988     0.14300
H1511       H  0.83663614  0.67916173  0.43858602     0.00100
H1512       H  0.86045689  0.73836052  0.38669894     0.14600
H1513       H  0.87178933  0.64064834  0.39051656     0.14400
C1514       C  0.66732510  0.83732101  0.61226599     0.86200
C1515       C  0.65117720  0.79594890  0.60349265    -0.54000
C1516       C  0.65583415  0.79715303  0.58512946     0.09200
C1517       C  0.67622687  0.83948882  0.57728901     0.20100
C1518       C  0.71042701  0.86096232  0.60607491    -0.54700
C1519       C  0.71538321  0.86190426  0.58777406     0.09300
C1520       C  0.64636192  0.85573085  0.60195107    -0.54300
C1521       C  0.65110347  0.85740916  0.58362623     0.09800
H1522       H  0.63746526  0.76808626  0.61080229     0.14300
H1523       H  0.67989292  0.84011396  0.56249191     0.00100
H1524       H  0.73483468  0.87534915  0.61553888     0.14600
H1525       H  0.62857069  0.86577220  0.60879194     0.14400
O1526       O  0.74352759  0.88070571  0.14042566    -0.78800
C1527       C  0.63309415  0.87120797  0.13615346     0.82300
O1528       O  0.69888141  0.87954620  0.20288564    -0.79900
O1529       O  0.57548760  0.77459540  0.17413337    -0.81400
O1530       O  0.66133066  0.74009409  0.14327501    -0.81200
O1531       O  0.74805694  0.82611629  0.14283324    -0.79800
Zn1532     Zn  0.70089212  0.87388056  0.15708635     1.55700
O1533       O  0.60908369  0.74727242  0.13870041    -0.81200
Cd1534     Cd  0.69868205  0.79041798  0.15853173     1.59700
Cd1535     Cd  0.66708685  0.82031367  0.19316612     1.59600
O1536       O  0.71647026  0.77234132  0.18106274    -0.81200
O1537       O  0.67150663  0.82009522  0.16604104    -1.91700
Cd1538     Cd  0.61836062  0.79469525  0.15459738     1.59900
O1539       O  0.69218936  0.78873092  0.20461893    -0.81100
O1540       O  0.61077470  0.83396007  0.13858428    -0.79800
C1541       C  0.72205224  0.91177224  0.19446787     0.82800
C1542       C  0.75999195  0.86077705  0.13639930     0.82400
O1543       O  0.66736195  0.88996815  0.14310860    -0.78700
C1544       C  0.62783121  0.72890788  0.13602748     0.83200
O1545       O  0.72584896  0.91231424  0.17739289    -0.78800
C1546       C  0.71108876  0.77285354  0.19801081     0.83400
C1547       C  0.57540862  0.77577798  0.19133855     0.83700
O1548       O  0.60736090  0.79210357  0.20060098    -0.81300
C1549       C  0.49909187  0.48441653  0.05465197     0.86200
C1550       C  0.51985172  0.96133313  0.06019583    -0.54000
C1551       C  0.52307136  0.95868518  0.07841342     0.09200
C1552       C  0.50583210  0.47888005  0.08953759     0.20100
C1553       C  0.95984712  0.96356687  0.06447607    -0.54700
C1554       C  0.96282071  0.96029360  0.08271314     0.09300
C1555       C  0.52300604  0.52465989  0.06429362    -0.54300
C1556       C  0.52673405  0.52208571  0.08255981     0.09800
H1557       H  0.53021491  0.94696660  0.05107638     0.14300
H1558       H  0.50842754  0.47618297  0.10434487     0.00100
H1559       H  0.93175668  0.95098122  0.05746055     0.14600
H1560       H  0.53642872  0.55276897  0.05706278     0.14400
C1561       C  0.84007907  0.65907572  0.27923938     0.86200
C1562       C  0.88124209  0.67640512  0.27127516    -0.54000
C1563       C  0.88221506  0.67244507  0.25298956     0.09200
C1564       C  0.84068877  0.65129069  0.24416983     0.20100
C1565       C  0.82112975  0.67914880  0.26873565    -0.54700
C1566       C  0.82102969  0.67527001  0.25036493     0.09300
C1567       C  0.81799095  0.61554442  0.27260976    -0.54300
C1568       C  0.81775959  0.61115521  0.25427157     0.09800
H1569       H  0.90757126  0.69139856  0.27960536     0.14300
H1570       H  0.84075361  0.64769771  0.22934051     0.00100
H1571       H  0.80947588  0.69572452  0.27549534     0.14600
H1572       H  0.80398604  0.58988810  0.28132627     0.14400
C1573       C  0.79381140  0.87906359  0.12400693    -0.05500
C1574       C  0.79477977  0.90456518  0.11029571    -0.05400
C1575       C  0.82764448  0.92464296  0.09922459    -0.23600
C1576       C  0.86053414  0.92027111  0.10194451     0.18600
C1577       C  0.85991899  0.89456709  0.11565397     0.15800
C1578       C  0.82619484  0.87350019  0.12641865    -0.18600
C1579       C  0.89339337  0.89116174  0.11859286    -0.20500
C1580       C  0.92714376  0.91314081  0.10810851    -0.13000
C1581       C  0.92775533  0.93839550  0.09436621     0.03700
C1582       C  0.89423105  0.94169772  0.09133207    -0.25200
H1583       H  0.77002933  0.90911338  0.10819498     0.08700
H1584       H  0.82763022  0.94417717  0.08877837     0.12300
H1585       H  0.82576308  0.85419262  0.13710205     0.12300
H1586       H  0.89354321  0.87169447  0.12903457     0.12000
H1587       H  0.95248501  0.90971856  0.11048716     0.12600
H1588       H  0.89460777  0.96145921  0.08089151     0.14500
C1589       C  0.60999403  0.69418788  0.12380620    -0.05500
C1590       C  0.58943013  0.69520733  0.10844902    -0.05400
C1591       C  0.57045942  0.66227650  0.09705975    -0.23600
C1592       C  0.57088284  0.62728699  0.10105680     0.18600
C1593       C  0.59161077  0.62580339  0.11642928     0.15800
C1594       C  0.61172826  0.65962184  0.12758364    -0.18600
C1595       C  0.59093031  0.59021357  0.12055443    -0.20500
C1596       C  0.56964978  0.55645051  0.10966277    -0.13000
C1597       C  0.54915436  0.55777882  0.09429228     0.03700
C1598       C  0.55014101  0.59354587  0.09008716    -0.25200
H1599       H  0.58803738  0.72167105  0.10524901     0.08700
H1600       H  0.55479905  0.66393306  0.08531141     0.12300
H1601       H  0.62732674  0.65857831  0.13949763     0.12300
H1602       H  0.60650540  0.58836266  0.13229022     0.12000
H1603       H  0.56969684  0.52946703  0.11319913     0.12600
H1604       H  0.53386137  0.59493055  0.07853221     0.14500
C1605       C  0.61899007  0.89335122  0.12514313    -0.05500
C1606       C  0.63974760  0.93522914  0.12525081    -0.05400
C1607       C  0.62570590  0.95642301  0.11559580    -0.23600
C1608       C  0.59076080  0.93613799  0.10558191     0.18600
C1609       C  0.57031664  0.89404556  0.10484815     0.15800
C1610       C  0.58449810  0.87294714  0.11467119    -0.18600
C1611       C  0.53566903  0.87381618  0.09454783    -0.20500
C1612       C  0.52083115  0.89505719  0.08549343    -0.13000
C1613       C  0.54034371  0.93665334  0.08673249     0.03700
C1614       C  0.57549720  0.95715900  0.09655989    -0.25200
H1615       H  0.66651767  0.95169335  0.13310929     0.08700
H1616       H  0.64189133  0.98868183  0.11617233     0.12300
H1617       H  0.56847212  0.84065428  0.11428186     0.12300
H1618       H  0.01973879  0.84156913  0.09372848     0.12000
H1619       H  0.99361491  0.87906632  0.07790207     0.12600
H1620       H  0.59077591  0.48890701  0.09701612     0.14500
C1621       C  0.72737395  0.75421603  0.21017169    -0.05500
C1622       C  0.71332401  0.74308114  0.22788043    -0.05400
C1623       C  0.72802657  0.72442336  0.23905718    -0.23600
C1624       C  0.75743570  0.71704183  0.23281833     0.18600
C1625       C  0.77202957  0.72842953  0.21512448     0.15800
C1626       C  0.75681584  0.74669981  0.20390906    -0.18600
C1627       C  0.80165615  0.72140277  0.20894576    -0.20500
C1628       C  0.81708971  0.70369661  0.22026098    -0.13000
C1629       C  0.80319087  0.69247725  0.23798810     0.03700
C1630       C  0.77269853  0.69876662  0.24401763    -0.25200
H1631       H  0.69056139  0.74829677  0.23300928     0.08700
H1632       H  0.71648082  0.71589231  0.25261841     0.12300
H1633       H  0.76815226  0.75532033  0.19031920     0.12300
H1634       H  0.81323495  0.73000549  0.19540136     0.12000
H1635       H  0.84048966  0.69966586  0.21514391     0.12600
H1636       H  0.76057201  0.68939966  0.25742117     0.14500
C1637       C  0.79601948  0.57116011  0.24537292    -0.05500
C1638       C  0.76187077  0.54007144  0.25341476    -0.05400
C1639       C  0.74156461  0.50229059  0.24554539    -0.23600
C1640       C  0.75447077  0.49467089  0.22925657     0.18600
C1641       C  0.78839315  0.52564559  0.22086472     0.15800
C1642       C  0.80904354  0.56357319  0.22898623    -0.18600
C1643       C  0.80091164  0.51821855  0.20440021    -0.20500
C1644       C  0.77971379  0.98097030  0.19631816    -0.13000
C1645       C  0.74541630  0.95006085  0.20429612     0.03700
C1646       C  0.73308300  0.95706131  0.22098668    -0.25200
H1647       H  0.75023868  0.54494531  0.26575516     0.08700
H1648       H  0.71545594  0.47915071  0.25211386     0.12300
H1649       H  0.83538432  0.58685201  0.22264436     0.12300
H1650       H  0.82681621  0.54143576  0.19774494     0.12000
H1651       H  0.79005984  0.97640327  0.18349877     0.12600
H1652       H  0.70658075  0.93368184  0.22720897     0.14500
C1653       C  0.53672786  0.75739824  0.20052811    -0.05500
C1654       C  0.50358963  0.75349639  0.19126958    -0.05400
C1655       C  0.96666537  0.73550280  0.19950132    -0.23600
C1656       C  0.96191843  0.72040225  0.21707575     0.18600
C1657       C  0.99485448  0.72351315  0.22640627     0.15800
C1658       C  0.53211137  0.74238948  0.21818072    -0.18600
C1659       C  0.98990430  0.70751233  0.24378222    -0.20500
C1660       C  0.95303731  0.68961654  0.25202008    -0.13000
C1661       C  0.92027588  0.68779563  0.24320652     0.03700
C1662       C  0.92491216  0.70262452  0.22552127    -0.25200
H1663       H  0.50630248  0.76473622  0.17764082     0.08700
H1664       H  0.94180182  0.73331606  0.19208840     0.12300
H1665       H  0.55729684  0.74470669  0.22536494     0.12300
H1666       H  0.51459878  0.70896281  0.25105672     0.12000
H1667       H  0.95034823  0.67733019  0.26540971     0.12600
H1668       H  0.90021968  0.70149852  0.21849382     0.14500
C1669       C  0.84158656  0.66680343  0.29953945    -0.05500
C1670       C  0.86197009  0.70650287  0.30574961    -0.05400
C1671       C  0.86436893  0.71533746  0.32415526    -0.23600
C1672       C  0.84630043  0.68461099  0.33684857     0.18600
C1673       C  0.82603352  0.64472725  0.33088836     0.15800
C1674       C  0.82372751  0.63605750  0.31241223    -0.18600
C1675       C  0.80843439  0.61389649  0.34351581    -0.20500
C1676       C  0.81068476  0.62246354  0.36189062    -0.13000
C1677       C  0.83013844  0.66204789  0.36815047     0.03700
C1678       C  0.84829906  0.69310569  0.35538197    -0.25200
H1679       H  0.87615238  0.73086352  0.29622621     0.08700
H1680       H  0.88025646  0.74617080  0.32843822     0.12300
H1681       H  0.80787359  0.60522670  0.30850499     0.12300
H1682       H  0.79302104  0.58304197  0.33919608     0.12000
H1683       H  0.79718587  0.59794937  0.37135048     0.12600
H1684       H  0.86474195  0.72384310  0.35951884     0.14500
C1685       C  0.62649785  0.57573526  0.45859289    -0.05500
C1686       C  0.62881247  0.60321950  0.44558162    -0.05400
C1687       C  0.66158032  0.62258753  0.43432561    -0.23600
C1688       C  0.69303117  0.61551091  0.43616793     0.18600
C1689       C  0.69128054  0.58839373  0.44942346     0.15800
C1690       C  0.65771863  0.56813476  0.46031260    -0.18600
C1691       C  0.72341448  0.58249453  0.45174527    -0.20500
C1692       C  0.75699817  0.60332478  0.44107612    -0.13000
C1693       C  0.75850635  0.62950345  0.42763490     0.03700
C1694       C  0.72639443  0.63538665  0.42513605    -0.25200
H1695       H  0.60508261  0.60947860  0.44401683     0.08700
H1696       H  0.66250387  0.64343449  0.42432292     0.12300
H1697       H  0.65638078  0.54735514  0.47046500     0.12300
H1698       H  0.72271211  0.56203847  0.46189518     0.12000
H1699       H  0.78155843  0.59849191  0.44307111     0.12600
H1700       H  0.72777388  0.65593474  0.41485148     0.14500
C1701       C  0.86884264  0.75439634  0.42263453    -0.05500
C1702       C  0.84878576  0.77566210  0.42242158    -0.05400
C1703       C  0.86469142  0.81228883  0.43127482    -0.23600
C1704       C  0.90101730  0.82809572  0.44028390     0.18600
C1705       C  0.92187881  0.80725017  0.44000350     0.15800
C1706       C  0.90551270  0.77038026  0.43121643    -0.18600
C1707       C  0.95852082  0.82343915  0.44868203    -0.20500
C1708       C  0.97382917  0.85934940  0.45810898    -0.13000
C1709       C  0.95264385  0.87955913  0.45907328     0.03700
C1710       C  0.91651151  0.86403906  0.44980664    -0.25200
H1711       H  0.82060787  0.76360997  0.41559800     0.08700
H1712       H  0.84849762  0.82804512  0.43121463     0.12300
H1713       H  0.92132961  0.75422834  0.43091677     0.12300
H1714       H  0.97504606  0.80799931  0.44843121     0.12000
H1715       H  0.00180068  0.87077561  0.46502550     0.12600
H1716       H  0.90009486  0.87957259  0.45021807     0.14500
C1717       C  0.88017777  0.64314233  0.42794963    -0.05500
C1718       C  0.90133505  0.66531762  0.44315634    -0.05400
C1719       C  0.92178673  0.65235350  0.45413069    -0.23600
C1720       C  0.92063659  0.61642970  0.45031722     0.18600
C1721       C  0.89866895  0.59353083  0.43525573     0.15800
C1722       C  0.87905678  0.60723192  0.42406885    -0.18600
C1723       C  0.89618558  0.55696399  0.43172811    -0.20500
C1724       C  0.91505049  0.54300362  0.44305976    -0.13000
C1725       C  0.93748005  0.56562471  0.45792851     0.03700
C1726       C  0.94049016  0.60264845  0.46142308    -0.25200
H1727       H  0.90249957  0.69296979  0.44646995     0.08700
H1728       H  0.93816583  0.67020559  0.46566074     0.12300
H1729       H  0.86214924  0.58948697  0.41261386     0.12300
H1730       H  0.87933722  0.53896495  0.42030771     0.12000
H1731       H  0.91237169  0.51444779  0.44007278     0.12600
H1732       H  0.95730151  0.62008039  0.47297240     0.14500
C1733       C  0.86861955  0.93757605  0.53459390    -0.05500
C1734       C  0.83592381  0.93493276  0.52545726    -0.05400
C1735       C  0.79995001  0.92066285  0.53421585    -0.23600
C1736       C  0.79570649  0.90808481  0.55221789     0.18600
C1737       C  0.82801276  0.90963960  0.56145021     0.15800
C1738       C  0.86441027  0.92473584  0.55264684    -0.18600
C1739       C  0.82329032  0.89606985  0.57931941    -0.20500
C1740       C  0.78694570  0.88103839  0.58792287    -0.13000
C1741       C  0.75466769  0.87976720  0.57893007     0.03700
C1742       C  0.75958236  0.89380042  0.56106813    -0.25200
H1743       H  0.83836766  0.94474868  0.51157774     0.08700
H1744       H  0.77544278  0.91947257  0.52689506     0.12300
H1745       H  0.88930209  0.92631331  0.55978614     0.12300
H1746       H  0.84756779  0.89663018  0.58657964     0.12000
H1747       H  0.78402788  0.86962981  0.60151447     0.12600
H1748       H  0.73547456  0.89388832  0.55398315     0.14500
C1749       C  0.56149260  0.62652173  0.54332561    -0.05500
C1750       C  0.54240033  0.62461245  0.55958846    -0.05400
C1751       C  0.55743360  0.65744903  0.57110895    -0.23600
C1752       C  0.59222636  0.69252757  0.56670748     0.18600
C1753       C  0.61233520  0.69442817  0.55062008     0.15800
C1754       C  0.59666884  0.66150166  0.53893185    -0.18600
C1755       C  0.64754324  0.72934668  0.54644793    -0.20500
C1756       C  0.66216587  0.76234990  0.55791682    -0.13000
C1757       C  0.64172610  0.76113256  0.57367011     0.03700
C1758       C  0.60690585  0.72585469  0.57804928    -0.25200
H1759       H  0.01523551  0.59794767  0.56319966     0.08700
H1760       H  0.54173605  0.65547369  0.58341071     0.12300
H1761       H  0.61179948  0.66301462  0.52651138     0.12300
H1762       H  0.66361721  0.73120351  0.53430719     0.12000
H1763       H  0.68959560  0.78881264  0.55442976     0.12600
H1764       H  0.59055757  0.72458461  0.59001651     0.14500
C1765       C  0.56925632  0.94754420  0.54272796    -0.05500
C1766       C  0.57700560  0.95959255  0.56090774    -0.05400
C1767       C  0.59545106  0.94520477  0.57231998    -0.23600
C1768       C  0.60579482  0.91781606  0.56588333     0.18600
C1769       C  0.59772146  0.90503861  0.54771634     0.15800
C1770       C  0.58003100  0.92039866  0.53617675    -0.18600
C1771       C  0.60706897  0.87677122  0.54148298    -0.20500
C1772       C  0.62408442  0.86118836  0.55313145    -0.13000
C1773       C  0.63289871  0.87410297  0.57119488     0.03700
C1774       C  0.62378933  0.90281190  0.57737500    -0.25200
H1775       H  0.56917564  0.98057923  0.56626890     0.08700
H1776       H  0.60130263  0.95524612  0.58623669     0.12300
H1777       H  0.57392275  0.91062177  0.52222319     0.12300
H1778       H  0.60069586  0.86625419  0.52764615     0.12000
H1779       H  0.62954908  0.83844195  0.54795457     0.12600
H1780       H  0.63083324  0.91385019  0.59109941     0.14500
C1781       C  0.49408112  0.48958816  0.03454259    -0.05500
C1782       C  0.97305317  0.00841449  0.02921986    -0.05400
C1783       C  0.96760304  0.01375955  0.01099279    -0.23600
C1784       C  0.98390263  0.50170347  0.99763820     0.18600
C1785       C  0.50663742  0.48437416  0.00263921     0.15800
C1786       C  0.51160360  0.47841872  0.02093566    -0.18600
C1787       C  0.52431367  0.47335153  0.98925675    -0.20500
C1788       C  0.51932096  0.47920515  0.97108877    -0.13000
C1789       C  0.49664407  0.49631414  0.96575673     0.03700
C1790       C  0.97916646  0.00705394  0.97919653    -0.25200
H1791       H  0.95999606  0.01832697  0.03930425     0.08700
H1792       H  0.95041248  0.02750307  0.00741298     0.12300
H1793       H  0.52979625  0.46591628  0.02421573     0.12300
H1794       H  0.54194360  0.46009353  0.99281930     0.12000
H1795       H  0.53321449  0.47016640  0.96103652     0.12600
H1796       H  0.96169518  0.02040142  0.97574252     0.14500
C1797       C  0.64649142  0.82268082  0.70111694    -0.05500
C1798       C  0.63161389  0.78434799  0.69368956    -0.05400
C1799       C  0.63188001  0.77880736  0.67500398    -0.23600
C1800       C  0.64655970  0.81145491  0.66321683     0.18600
C1801       C  0.65970475  0.84973106  0.67038295     0.15800
C1802       C  0.65884077  0.85498858  0.68907587    -0.18600
C1803       C  0.67427743  0.88254676  0.65878858    -0.20500
C1804       C  0.67656320  0.87763439  0.64028813    -0.13000
C1805       C  0.66366838  0.83979210  0.63272814     0.03700
C1806       C  0.64843226  0.80658614  0.64445197    -0.25200
H1807       H  0.62054939  0.75860422  0.70246361     0.08700
H1808       H  0.62106966  0.74899204  0.66979427     0.12300
H1809       H  0.66769201  0.88447632  0.69386582     0.12300
H1810       H  0.68448980  0.91212385  0.66404706     0.15900
H1811       H  0.68855388  0.90379358  0.63171004     0.12600
H1812       H  0.63845814  0.77699219  0.63934485     0.14500
C1813       C  0.87818545  0.79358631  0.87442230    -0.05500
C1814       C  0.85389288  0.79502163  0.88790151    -0.05400
C1815       C  0.86759411  0.82800030  0.89926257    -0.23600
C1816       C  0.90558527  0.86060251  0.89708518     0.18600
C1817       C  0.93034695  0.85970278  0.88350182     0.15800
C1818       C  0.91674977  0.82580876  0.87247227    -0.18600
C1819       C  0.96793361  0.89303184  0.88100526    -0.20500
C1820       C  0.48064796  0.92693107  0.89176536    -0.13000
C1821       C  0.95640950  0.92757575  0.90543814     0.03700
C1822       C  0.91902375  0.89427028  0.90814326    -0.25200
H1823       H  0.82421465  0.77038780  0.88973138     0.08700
H1824       H  0.84825708  0.82823386  0.90958060     0.12300
H1825       H  0.93560138  0.82502010  0.86203499     0.12300
H1826       H  0.48731485  0.89298761  0.87066553     0.12000
H1827       H  0.50977603  0.95239704  0.88969045     0.12600
H1828       H  0.90027271  0.89490079  0.91867508     0.14500
C1829       C  0.69760219  0.59965326  0.87638888    -0.05500
C1830       C  0.69595595  0.57488297  0.89059959    -0.05400
C1831       C  0.66289850  0.55622555  0.90165982    -0.23600
C1832       C  0.63067329  0.56149877  0.89846592     0.18600
C1833       C  0.63164197  0.58560941  0.88392099     0.15800
C1834       C  0.66535557  0.60501461  0.87312469    -0.18600
C1835       C  0.59876126  0.58964173  0.88036950    -0.20500
C1836       C  0.56544337  0.57037988  0.89129126    -0.13000
C1837       C  0.56484641  0.54756498  0.90612872     0.03700
C1838       C  0.59745838  0.54294954  0.90955797    -0.25200
H1839       H  0.72053663  0.57036885  0.89331052     0.08700
H1840       H  0.66250178  0.53763526  0.91266293     0.12300
H1841       H  0.66622888  0.62361961  0.86200421     0.12300
H1842       H  0.59879859  0.60761151  0.86916301     0.12000
H1843       H  0.54040770  0.57390927  0.88830762     0.12600
H1844       H  0.59672296  0.52444766  0.92068609     0.14500
C1845       C  0.90042106  0.62024855  0.87464286    -0.05500
C1846       C  0.94180994  0.64155909  0.87457526    -0.05400
C1847       C  0.96311758  0.62710365  0.88387336    -0.23600
C1848       C  0.94340825  0.59123471  0.89351149     0.18600
C1849       C  0.90181301  0.57015665  0.89408938     0.15800
C1850       C  0.88068074  0.58469046  0.88463277    -0.18600
C1851       C  0.88199471  0.53463868  0.90397908    -0.20500
C1852       C  0.90318687  0.51984630  0.91303322    -0.13000
C1853       C  0.94435193  0.54007383  0.91214159     0.03700
C1854       C  0.96445143  0.57585637  0.90247020    -0.25200
H1855       H  0.95774495  0.66899111  0.86700647     0.08700
H1856       H  0.99499074  0.64376450  0.88337271     0.12300
H1857       H  0.84876920  0.56803165  0.88494256     0.12300
H1858       H  0.85013119  0.51819481  0.90461643     0.12000
H1859       H  0.88747259  0.49220076  0.92047919     0.12600
H1860       H  0.99631741  0.59172251  0.90204326     0.14500
C1861       C  0.75592534  0.72556971  0.79123298    -0.05500
C1862       C  0.77055501  0.73615172  0.77356566    -0.05400
C1863       C  0.75662563  0.75480670  0.76197792    -0.23600
C1864       C  0.72725725  0.76263877  0.76771676     0.18600
C1865       C  0.71164261  0.75128486  0.78529771     0.15800
C1866       C  0.72635424  0.73325353  0.79701184    -0.18600
C1867       C  0.68154279  0.75813032  0.79085097    -0.20500
C1868       C  0.66740311  0.77651113  0.77922695    -0.13000
C1869       C  0.68341448  0.78904547  0.76187603     0.03700
C1870       C  0.71333273  0.78169882  0.75619670    -0.25200
H1871       H  0.79341445  0.73067907  0.76880438     0.08700
H1872       H  0.76885519  0.76312320  0.74852261     0.12300
H1873       H  0.71456154  0.72488141  0.81054670     0.12300
H1874       H  0.66875892  0.74907534  0.80417303     0.12000
H1875       H  0.64343761  0.78032389  0.78384364     0.12600
H1876       H  0.72626338  0.79126029  0.74293002     0.14500
C1877       C  0.57329303  0.80021789  0.76036773    -0.05500
C1878       C  0.57557563  0.81989900  0.77666102    -0.05400
C1879       C  0.54298431  0.80595699  0.78798820    -0.23600
C1880       C  0.50725700  0.77225884  0.78318348     0.18600
C1881       C  0.50421617  0.75266392  0.76667057     0.15800
C1882       C  0.53723864  0.76664959  0.75540665    -0.18600
C1883       C  0.96825636  0.71922025  0.76178258    -0.20500
C1884       C  0.93571489  0.70519732  0.77318854    -0.13000
C1885       C  0.93866196  0.72406747  0.78978995     0.03700
C1886       C  0.97459600  0.75776235  0.79465756    -0.25200
H1887       H  0.60246776  0.84644281  0.78065436     0.08700
H1888       H  0.54574590  0.82159213  0.80051305     0.12300
H1889       H  0.53500936  0.75087108  0.74300273     0.12300
H1890       H  0.46533134  0.70380917  0.74917262     0.12000
H1891       H  0.90840032  0.67908645  0.76915938     0.12600
H1892       H  0.97715920  0.77276592  0.80736248     0.14500
C1893       C  0.75649135  0.52888826  0.80075862    -0.05500
C1894       C  0.75326923  0.49538310  0.80968109    -0.05400
C1895       C  0.73686817  0.95889838  0.80104344    -0.23600
C1896       C  0.72325414  0.95498028  0.78321027     0.18600
C1897       C  0.72605369  0.98843542  0.77424171     0.15800
C1898       C  0.74285026  0.52487954  0.78287120    -0.18600
C1899       C  0.71174514  0.98438677  0.75656174    -0.20500
C1900       C  0.69469279  0.94755818  0.74785689    -0.13000
C1901       C  0.69215176  0.91402248  0.75650729     0.03700
C1902       C  0.70673962  0.91816105  0.77424295    -0.25200
H1903       H  0.76362135  0.49762303  0.82345006     0.08700
H1904       H  0.73486443  0.93356718  0.80817261     0.12300
H1905       H  0.74488972  0.55037592  0.77586418     0.12300
H1906       H  0.71330200  0.00961892  0.74952507     0.12000
H1907       H  0.68282737  0.94534613  0.73440251     0.12600
H1908       H  0.70566328  0.89298491  0.78108331     0.14500
loop_ 
_geom_bond_atom_site_label_1 
_geom_bond_atom_site_label_2 
_geom_bond_distance 
_geom_bond_site_symmetry_2 
_ccdc_geom_bond_type 
O1           C17   1.277       .  A
O1           Zn7   2.034       .  S
C2           O18   1.277       .  A
C2           O15   1.272       .  A
C2          C414   1.483       .  S
O3           C16   1.275       .  A
O3          Cd10   2.064       .  S
O4           C22   1.274       .  A
O4          Cd13   2.065       .  S
O5           C19   1.275       .  A
O5           Cd9   2.070       .  S
O6           C17   1.276       .  A
O6           Cd9   2.065       .  S
Zn7          O18   2.041       .  S
Zn7          O20   2.023       .  S
Zn7          O12   1.953       .  S
O8           C19   1.273       .  A
O8          Cd13   2.056       .  S
Cd9          O11   2.083       .  S
Cd9          O12   1.995       .  S
Cd10         O14   2.075       .  S
Cd10         O23   2.076       .  S
Cd10         O12   1.996       .  S
O11          C21   1.277       .  A
O12         Cd13   1.992       .  S
Cd13         O15   2.053       .  S
O14          C21   1.276       .  A
C16          O20   1.276       .  A
C16         C454   1.479       .  S
C17         C382   1.477       .  S
C19         C398   1.472       .  S
C21         C430   1.483       .  S
C22          O23   1.276       .  A
C22         C462   1.481       .  S
C24          C25   1.539       .  S
C24          C30   1.540       .  S
C24          C28   1.543       .  S
C24         C366   1.533       .  S
C25          H32   1.085       .  S
C25          C26   1.370       .  D
C26          C27   1.538       .  S
C26         C446   1.489       .  S
C27          C31   1.543       .  S
C27          C29   1.537       .  S
C27          H33   1.104       .  S
C28          H34   1.081       .  S
C28          C29   1.363       .  D
C29         C470   1.491       .  S
C30          H35   1.084       .  S
C30          C31   1.369       .  D
C31         C438   1.494       .  S
C36          C42   1.540   1_665  S
C36         C991   1.545   1_565  S
C36        C1471   1.536       .  S
C36         C358   1.525       .  S
C37         C990   1.545   1_545  S
C37          H44   1.082       .  S
C37          C38   1.365       .  D
C38         C993   1.535       .  S
C38         C422   1.473       .  S
C39          C43   1.532   1_655  S
C39         C992   1.535       .  S
C39        C1472   1.536   1_545  S
C39          H45   1.111       .  S
C40        C1467   1.536       .  S
C40          H46   1.086       .  S
C40          C41   1.362       .  D
C41        C1470   1.536       .  S
C41         C390   1.474       .  S
C42          H47   1.086       .  S
C42          C43   1.366       .  D
C43         C406   1.478       .  S
O48          C64   1.276       .  A
O48       Zn1008   2.030       .  S
C49          O62   1.274       .  A
C49         O542   1.277       .  A
C49         C254   1.477       .  S
O50          C63   1.276       .  A
O50       Cd1011   2.074   1_455  S
O51          C69   1.275       .  A
O51         Cd60   2.065       .  S
O52          C66   1.273       .  A
O52        Cd533   2.060   1_545  S
O53          C64   1.273       .  A
O53         Cd56   2.050       .  S
Zn54         O65   2.034       .  S
Zn54         O67   2.036       .  S
Zn54       O1002   2.030       .  S
Zn54       O1013   1.952       .  S
O55          C66   1.275       .  A
O55       Cd1014   2.087       .  S
Cd56         O58   2.063       .  S
Cd56        O529   2.063       .  S
Cd56         O59   1.984       .  S
Cd57         O61   2.083       .  S
Cd57       O1004   2.074       .  S
Cd57       O1501   2.067       .  S
Cd57         O59   1.998       .  S
O58          C68   1.274       .  A
O59       Zn1008   1.952       .  S
O59       Cd1491   1.998       .  S
Cd60         O62   2.063       .  S
Cd60       O1009   2.087   1_455  S
Cd60       O1490   1.999       .  S
O61          C68   1.277       .  A
C63          O67   1.277       .  A
C63         C334   1.483       .  S
C64         C278   1.479       .  S
O65         C526   1.277       .  A
C66         C294   1.480       .  S
C68         C302   1.481       .  S
C69          O70   1.276       .  A
C69         C318   1.474       .  S
O70       Cd1488   2.069   1_455  S
C71          C72   1.540       .  S
C71          C77   1.540       .  S
C71          C75   1.542       .  S
C71         C246   1.523       .  S
C72          H79   1.086       .  S
C72          C73   1.364       .  D
C73          C74   1.537       .  S
C73         C262   1.476       .  S
C74          C78   1.534       .  S
C74          C76   1.533       .  S
C74          H80   1.111       .  S
C75          H81   1.083       .  S
C75          C76   1.361       .  D
C76         C270   1.464       .  S
C77          H82   1.086       .  S
C77          C78   1.366       .  D
C78         C286   1.482       .  S
C83          C84   1.543       .  S
C83          C89   1.537       .  S
C83          C87   1.538       .  S
C83         C374   1.529       .  S
C84          H91   1.081       .  S
C84          C85   1.369       .  D
C85          C86   1.536       .  S
C85         C326   1.484       .  S
C86          C90   1.542       .  S
C86          C88   1.540       .  S
C86          H92   1.104       .  S
C87          H93   1.086       .  S
C87          C88   1.368       .  D
C88         C310   1.492       .  S
C89          H94   1.085       .  S
C89          C90   1.367       .  D
C90         C342   1.496       .  S
O95         C111   1.271       .  A
O95        Zn101   1.994       .  S
C96         O112   1.272       .  A
C96         O109   1.273       .  A
C96         C174   1.479       .  S
O97         C110   1.282       .  A
O97        Cd104   2.117       .  S
O98         C116   1.274       .  A
O98        Cd107   2.056       .  S
O99         C113   1.276       .  A
O99        Cd103   2.086       .  S
O100        C111   1.275       .  A
O100       Cd103   2.086       .  S
Zn101       O112   2.005       .  S
Zn101       O114   1.991       .  S
Zn101       O106   1.927       .  S
O102        C113   1.274       .  A
O102       Cd107   2.055       .  S
Cd103       O105   2.059       .  S
Cd103       O106   2.008       .  S
Cd104       O108   2.099       .  S
Cd104       O117   2.108       .  S
Cd104       O106   2.016       .  S
O105        C115   1.275       .  A
O106       Cd107   1.990       .  S
Cd107       O109   2.066       .  S
O108        C115   1.280       .  A
C110        O114   1.272       .  A
C110        C214   1.486       .  S
C111        C142   1.474       .  S
C113        C158   1.474       .  S
C115        C190   1.484       .  S
C116        O117   1.281       .  A
C116        C222   1.483       .  S
C118        C124   1.535   1_665  S
C118        C596   1.547   1_655  S
C118       C1553   1.535       .  S
C118        C350   1.526       .  S
C119        C595   1.547   1_455  S
C119        H126   1.080       .  S
C119        C120   1.363       .  D
C120        C598   1.531       .  S
C120        C182   1.468       .  S
C121        C125   1.540   1_565  S
C121        C597   1.530       .  S
C121       C1554   1.540   1_455  S
C121        H127   1.110       .  S
C122       C1549   1.535       .  S
C122        H128   1.086       .  S
C122        C123   1.366       .  D
C123       C1552   1.541       .  S
C123        C150   1.483       .  S
C124        H129   1.086       .  S
C124        C125   1.368       .  D
C125        C166   1.488       .  S
C130        C131   1.527       .  S
C130        C136   1.543       .  S
C130        C134   1.531       .  S
C130        C238   1.527       .  S
C131        H138   1.086       .  S
C131        C132   1.365       .  D
C132        C133   1.551       .  S
C132        C230   1.493       .  S
C133        C137   1.546       .  S
C133        C135   1.551       .  S
C133        H139   1.107       .  S
C134        H140   1.085       .  S
C134        C135   1.368       .  D
C135        C198   1.496       .  S
C136        H141   1.078       .  S
C136        C137   1.367       .  D
C137        C206   1.496       .  S
C142        C143   1.405       .  A
C142        C147   1.406       .  A
C143        C144   1.394       .  A
C143        H152   1.083       .  S
C144        C145   1.400       .  A
C144        H153   1.083       .  S
C145        C151   1.401       .  A
C145        C146   1.415       .  A
C146        C148   1.404       .  A
C146        C147   1.407       .  A
C147        H154   1.084       .  S
C148        C149   1.400       .  A
C148        H155   1.083       .  S
C149        C150   1.405       .  A
C149        H156   1.083       .  S
C150        C151   1.404       .  A
C151        H157   1.084       .  S
C158        C159   1.404       .  A
C158        C163   1.406       .  A
C159        C160   1.393       .  A
C159        H168   1.083       .  S
C160        C161   1.400       .  A
C160        H169   1.083       .  S
C161        C167   1.401       .  A
C161        C162   1.414       .  A
C162        C164   1.403       .  A
C162        C163   1.408       .  A
C163        H170   1.084       .  S
C164        C165   1.401       .  A
C164        H171   1.083       .  S
C165        C166   1.406       .  A
C165        H172   1.082       .  S
C166        C167   1.405       .  A
C167        H173   1.083       .  S
C174        C175   1.407       .  A
C174        C179   1.407       .  A
C175        C176   1.395       .  A
C175        H184   1.083       .  S
C176        C177   1.400       .  A
C176        H185   1.084       .  S
C177        C183   1.401       .  A
C177        C178   1.415       .  A
C178        C180   1.403       .  A
C178        C179   1.403       .  A
C179        H186   1.085       .  S
C180        C181   1.397       .  A
C180       H1141   1.085       .  S
C181        C182   1.401       .  A
C181       H1142   1.083   1_455  S
C182        C183   1.399       .  A
C183        H666   1.085       .  S
H187       C1134   1.085       .  S
H188       C1135   1.083       .  S
H189        C660   1.085       .  S
C190        C191   1.405       .  A
C190        C195   1.409       .  A
C191        C192   1.400       .  A
C191        H200   1.083       .  S
C192        C193   1.404       .  A
C192        H201   1.084       .  S
C193        C199   1.405       .  A
C193        C194   1.411       .  A
C194        C196   1.402       .  A
C194        C195   1.404       .  A
C195        H202   1.084       .  S
C196        C197   1.399       .  A
C196        H203   1.084       .  S
C197        C198   1.405       .  A
C197        H204   1.079       .  S
C198        C199   1.413       .  A
C199        H205   1.083       .  S
C206        C207   1.410       .  A
C206        C211   1.407       .  A
C207        C208   1.397       .  A
C207        H216   1.082       .  S
C208        C209   1.399   1_545  A
C208        H217   1.083   1_545  S
C209        C210   1.415   1_565  A
C209        C692   1.410       .  A
C210        C212   1.400       .  A
C210        C211   1.409       .  A
C211        H218   1.082       .  S
C212        C690   1.397   1_545  A
C212        H219   1.083       .  S
C213        C214   1.409       .  A
C213        C689   1.398       .  A
C213        H220   1.084       .  S
C214        C215   1.405       .  A
C215        C686   1.410       .  A
C215        H221   1.083       .  S
C222        C223   1.408       .  A
C222        C227   1.405       .  A
C223       C1178   1.397   1_455  A
C223        H232   1.083       .  S
C224        C225   1.400       .  A
C224       C1177   1.397       .  A
C224        H233   1.084       .  S
C225        C231   1.407       .  A
C225        C226   1.415       .  A
C226        C228   1.399       .  A
C226       C1181   1.407       .  A
C227       C1180   1.407   1_455  A
C227        H234   1.085       .  S
C228        C229   1.396       .  A
C228       H1189   1.084       .  S
C229        C230   1.410       .  A
C229        H236   1.082       .  S
C230        C231   1.404       .  A
C231        H237   1.080       .  S
H235       C1182   1.084   1_455  S
C238        C239   1.410       .  A
C238        C243   1.409       .  A
C239        C240   1.397       .  A
C239        H248   1.084       .  S
C240        C241   1.401       .  A
C240        H249   1.084       .  S
C241        C247   1.404       .  A
C241        C242   1.410       .  A
C242        C244   1.398       .  A
C242        C243   1.400       .  A
C243        H250   1.075       .  S
C244        C245   1.391       .  A
C244        H251   1.085       .  S
C245        C246   1.408       .  A
C245        H252   1.083       .  S
C246        C247   1.412       .  A
C247        H253   1.080       .  S
C254        C255   1.406       .  A
C254        C259   1.404       .  A
C255        C256   1.398       .  A
C255        H264   1.082       .  S
C256        C257   1.402       .  A
C256        H265   1.084       .  S
C257        C263   1.404       .  A
C257        C258   1.415       .  A
C258        C260   1.403       .  A
C258        C259   1.404       .  A
C259        H266   1.084       .  S
C260        C261   1.398       .  A
C260        H267   1.083       .  S
C261        C262   1.402       .  A
C261        H268   1.082       .  S
C262        C263   1.404       .  A
C263        H269   1.084       .  S
C270        C271   1.400       .  A
C270        C275   1.400       .  A
C271        C272   1.395       .  A
C271        H280   1.084       .  S
C272        C273   1.403       .  A
C272        H281   1.083       .  S
C273        C279   1.399       .  A
C273        C274   1.414       .  A
C274        C276   1.402       .  A
C274        C275   1.401       .  A
C275        H282   1.084       .  S
C276        C277   1.398       .  A
C276        H283   1.084       .  S
C277        C278   1.406       .  A
C277        H284   1.083       .  S
C278        C279   1.407       .  A
C279        H285   1.084       .  S
C286        C287   1.405       .  A
C286        C291   1.403       .  A
C287        C288   1.400       .  A
C287        H296   1.082       .  S
C288        C289   1.404       .  A
C288        H297   1.082       .  S
C289        C295   1.409       .  A
C289        C290   1.415       .  A
C290        C292   1.399       .  A
C290        C291   1.403       .  A
C291        H298   1.082       .  S
C292        C293   1.394       .  A
C292        H299   1.083       .  S
C293        C294   1.405       .  A
C293        H300   1.084       .  S
C294        C295   1.408       .  A
C295        H301   1.083       .  S
C302        C303   1.407       .  A
C302        C307   1.407       .  A
C303        C304   1.396       .  A
C303        H312   1.083       .  S
C304        C305   1.401       .  A
C304        H313   1.084       .  S
C305        C311   1.403       .  A
C305        C306   1.413       .  A
C306        C308   1.401       .  A
C306        C307   1.406       .  A
C307        H314   1.084       .  S
C308        C309   1.398       .  A
C308        H315   1.084       .  S
C309        C310   1.409       .  A
C309        H316   1.082       .  S
C310        C311   1.407       .  A
C311        H317   1.082       .  S
C318        C319   1.404       .  A
C318        C323   1.406       .  A
C319        C320   1.395       .  A
C319       H1282   1.083       .  S
C320        C321   1.401       .  A
C320        H329   1.083       .  S
C321        C327   1.401       .  A
C321        C322   1.414       .  A
C322        C324   1.402       .  A
C322        C323   1.403       .  A
C323        H330   1.083       .  S
C324        C325   1.397       .  A
C324        H331   1.082       .  S
C325        C326   1.406       .  A
C325        H332   1.083       .  S
C326        C327   1.405       .  A
C327        H333   1.083       .  S
H328       C1273   1.083       .  S
C334        C335   1.406       .  A
C334        C339   1.407       .  A
C335        C336   1.398       .  A
C335        H344   1.083       .  S
C336        C337   1.402       .  A
C336        H345   1.084       .  S
C337        C343   1.404       .  A
C337        C338   1.412       .  A
C338        C340   1.401       .  A
C338        C339   1.407       .  A
C339        H346   1.084       .  S
C340        C341   1.399       .  A
C340        H347   1.084       .  S
C341        C342   1.408       .  A
C341        H348   1.081       .  S
C342        C343   1.410       .  A
C343        H349   1.082       .  S
C350        C355   1.410   1_655  A
C350       C1782   1.410   1_565  A
C351        C352   1.397       .  A
C351       C1781   1.410       .  A
C351        H360   1.083       .  S
C352        C830   1.400   1_554  A
C352        H361   1.083       .  S
C353        C829   1.400   1_556  A
C353        C836   1.405       .  A
C353       C1308   1.411   1_546  A
C354        C356   1.399   1_554  A
C354        C355   1.402       .  A
C354       C1307   1.411   1_464  A
C355        H362   1.074       .  S
C356        C357   1.393       .  A
C356        H363   1.083       .  S
C357        C358   1.409   1_455  A
C357        H364   1.083       .  S
C358       C1790   1.411   1_565  A
C359        C830   1.406       .  A
C359       C1789   1.411       .  A
C359        H365   1.079       .  S
C366        C367   1.409       .  A
C366        C371   1.413       .  A
C367        C368   1.401       .  A
C367        H376   1.085       .  S
C368        C369   1.403       .  A
C368        H377   1.083       .  S
C369        C375   1.409       .  A
C369        C370   1.410       .  A
C370        C372   1.400       .  A
C370        C371   1.402       .  A
C371        H378   1.072       .  S
C372        C373   1.393       .  A
C372        H379   1.078       .  S
C373        C374   1.408       .  A
C373        H380   1.086       .  S
C374        C375   1.415       .  A
C375        H381   1.078       .  S
C382        C383   1.405       .  A
C382        C387   1.406       .  A
C383        C384   1.395       .  A
C383        H392   1.083       .  S
C384        C385   1.400       .  A
C384        H393   1.084       .  S
C385        C391   1.402       .  A
C385        C386   1.416       .  A
C386        C388   1.404       .  A
C386        C387   1.406       .  A
C387        H394   1.084       .  S
C388       C1343   1.399       .  A
C388       H1349   1.083       .  S
C389       C1342   1.399       .  A
C389       C1344   1.402       .  A
C389        H396   1.084   1_655  S
C390        C391   1.401       .  A
C390       C1343   1.402       .  A
C391        H397   1.084       .  S
H395       C1342   1.083       .  S
C398        C399   1.404       .  A
C398        C403   1.404       .  A
C399        C400   1.395       .  A
C399        H408   1.083       .  S
C400        C401   1.401       .  A
C400        H409   1.083       .  S
C401        C407   1.400       .  A
C401        C402   1.414       .  A
C402        C404   1.402       .  A
C402        C403   1.402       .  A
C403        H410   1.084       .  S
C404        C405   1.396       .  A
C404        H411   1.083       .  S
C405        C406   1.403       .  A
C405        H412   1.081       .  S
C406        C407   1.404       .  A
C407        H413   1.083       .  S
C414        C415   1.406       .  A
C414        C419   1.408       .  A
C415        C416   1.399       .  A
C415        H424   1.083       .  S
C416        C417   1.403       .  A
C416        H425   1.084       .  S
C417        C423   1.405       .  A
C417        C418   1.414       .  A
C418        C420   1.403       .  A
C418        C419   1.402       .  A
C419        H426   1.084       .  S
C420        C421   1.397       .  A
C420        H427   1.084       .  S
C421        C422   1.401       .  A
C421        H428   1.083   1_545  S
C422        C423   1.403       .  A
C423        H429   1.083       .  S
C430        C431   1.406       .  A
C430        C435   1.407       .  A
C431        C432   1.398       .  A
C431        H440   1.083       .  S
C432        C433   1.402       .  A
C432        H441   1.084       .  S
C433        C439   1.406       .  A
C433        C434   1.413       .  A
C434        C436   1.401       .  A
C434        C435   1.406       .  A
C435        H442   1.084       .  S
C436        C437   1.397       .  A
C436        H443   1.084       .  S
C437        C438   1.407       .  A
C437        H444   1.082       .  S
C438        C439   1.410       .  A
C439        H445   1.083       .  S
C446        C447   1.407       .  A
C446        C451   1.407       .  A
C447        C448   1.396       .  A
C447        H456   1.082       .  S
C448        C449   1.400       .  A
C448        H457   1.084       .  S
C449        C450   1.414       .  A
C449       C1409   1.403   1_455  A
C450        C451   1.405       .  A
C450       C1406   1.402   1_455  A
C451        H458   1.083       .  S
C452        C453   1.397       .  A
C452       C1404   1.402       .  A
C452       H1413   1.084       .  S
C453        C454   1.406       .  A
C453        H460   1.083       .  S
C454        C455   1.405       .  A
C455       C1403   1.403       .  A
C455        H461   1.085       .  S
H459       C1406   1.084       .  S
C462        C463   1.407   1_545  A
C462        C467   1.406       .  A
C463        C941   1.397       .  A
C463        H472   1.083       .  S
C464        C465   1.401       .  A
C464        C940   1.397       .  A
C464        H473   1.084       .  S
C465        C471   1.405       .  A
C465        C466   1.414       .  A
C466        C468   1.399       .  A
C466        C944   1.403       .  A
C467        C943   1.404   1_545  A
C467        H474   1.085       .  S
C468        C469   1.395       .  A
C468        H475   1.084       .  S
C469        C470   1.409       .  A
C469        H476   1.083       .  S
C470        C471   1.406       .  A
C471        H477   1.083       .  S
O478        C494   1.276       .  A
O478       Zn484   2.032       .  S
C479        O495   1.276       .  A
C479        O492   1.272       .  A
C479        C891   1.483       .  S
O480        C493   1.275       .  A
O480       Cd487   2.065       .  S
O481        C499   1.274       .  A
O481       Cd490   2.061       .  S
O482        C496   1.275       .  A
O482       Cd486   2.070       .  S
O483        C494   1.276       .  A
O483       Cd486   2.066       .  S
Zn484       O495   2.040       .  S
Zn484       O497   2.020       .  S
Zn484       O489   1.952       .  S
O485        C496   1.273       .  A
O485       Cd490   2.055       .  S
Cd486       O488   2.082       .  S
Cd486       O489   1.995       .  S
Cd487       O491   2.076       .  S
Cd487       O500   2.077       .  S
Cd487       O489   1.995       .  S
O488        C498   1.276       .  A
O489       Cd490   1.991       .  S
Cd490       O492   2.052       .  S
O491        C498   1.276       .  A
C493        O497   1.276       .  A
C493        C931   1.479       .  S
C494        C859   1.477       .  S
C496        C875   1.472       .  S
C498        C907   1.483       .  S
C499        O500   1.276       .  A
C499        C939   1.481       .  S
C501        C502   1.540       .  S
C501        C507   1.540       .  S
C501        C505   1.543       .  S
C501        C843   1.534       .  S
C502        H509   1.085       .  S
C502        C503   1.370       .  D
C503        C504   1.538       .  S
C503        C923   1.490       .  S
C504        C508   1.542       .  S
C504        C506   1.538       .  S
C504        H510   1.105       .  S
C505        H511   1.082       .  S
C505        C506   1.364       .  D
C506        C947   1.492       .  S
C507        H512   1.085       .  S
C507        C508   1.369       .  D
C508        C915   1.493       .  S
C513       C1468   1.545       .  S
C513        C519   1.540   1_655  S
C513        C994   1.536       .  S
C513        C835   1.525       .  S
C514       C1467   1.545       .  S
C514        H521   1.082       .  S
C514        C515   1.365       .  D
C515       C1470   1.535       .  S
C515        C899   1.472       .  S
C516       C1469   1.535       .  S
C516        C520   1.531   1_655  S
C516        C995   1.536       .  S
C516        H522   1.111       .  S
C517        C990   1.536       .  S
C517        H523   1.086       .  S
C517        C518   1.363       .  D
C518        C993   1.536   1_565  S
C518        C867   1.474       .  S
C519        H524   1.086       .  S
C519        C520   1.366       .  D
C520        C883   1.477       .  S
O525        C541   1.276       .  A
O525      Zn1485   2.029       .  S
C526        O539   1.275       .  A
C526        C731   1.478       .  S
O527        C540   1.276       .  A
O527      Cd1488   2.076   1_465  S
O528        C546   1.275       .  A
O528       Cd537   2.066       .  S
O529        C543   1.273       .  A
O530        C541   1.273       .  A
O530       Cd533   2.052       .  S
Zn531      O1479   2.029       .  S
Zn531       O542   2.034   1_565  S
Zn531       O544   2.036       .  S
Zn531      O1490   1.951   1_565  S
O532        C543   1.276       .  A
O532      Cd1491   2.089       .  S
Cd533       O535   2.061       .  S
Cd533       O536   1.984   1_565  S
Cd534      O1481   2.076   1_545  S
Cd534       O538   2.087   1_545  S
Cd534      O1024   2.069       .  S
Cd534       O536   2.000       .  S
O535        C545   1.274       .  A
O536      Zn1485   1.951   1_545  S
O536      Cd1014   1.999       .  S
Cd537      O1486   2.089   1_455  S
Cd537       O539   2.062       .  S
Cd537      O1013   1.998       .  S
O538        C545   1.277       .  A
C540        O544   1.277       .  A
C540        C811   1.484       .  S
C541        C755   1.479       .  S
C543        C771   1.481       .  S
C545        C779   1.481       .  S
C546        O547   1.275       .  A
C546        C795   1.474       .  S
O547      Cd1011   2.067   1_455  S
C548        C549   1.540       .  S
C548        C554   1.540       .  S
C548        C552   1.542       .  S
C548        C723   1.524       .  S
C549        H556   1.086       .  S
C549        C550   1.365       .  D
C550        C551   1.537       .  S
C550        C739   1.476       .  S
C551        C555   1.534       .  S
C551        C553   1.534       .  S
C551        H557   1.111       .  S
C552        H558   1.082       .  S
C552        C553   1.361       .  D
C553        C747   1.467       .  S
C554        H559   1.086       .  S
C554        C555   1.366       .  D
C555        C763   1.485       .  S
C560        C561   1.544       .  S
C560        C566   1.536       .  S
C560        C564   1.538       .  S
C560        C851   1.530       .  S
C561        H568   1.082       .  S
C561        C562   1.370       .  D
C562        C563   1.537       .  S
C562        C803   1.485       .  S
C563        C567   1.543       .  S
C563        C565   1.540       .  S
C563        H569   1.104       .  S
C564        H570   1.086       .  S
C564        C565   1.367       .  D
C565        C787   1.492       .  S
C566        H571   1.085       .  S
C566        C567   1.367       .  D
C567        C819   1.496       .  S
O572        C588   1.271       .  A
O572       Zn578   1.993       .  S
C573        O589   1.272       .  A
C573        O586   1.273       .  A
C573        C651   1.479       .  S
O574        C587   1.281       .  A
O574       Cd581   2.117       .  S
O575        C593   1.274       .  A
O575       Cd584   2.058       .  S
O576        C590   1.276       .  A
O576       Cd580   2.087       .  S
O577        C588   1.275       .  A
O577       Cd580   2.085       .  S
Zn578       O589   2.003       .  S
Zn578       O591   1.993       .  S
Zn578       O583   1.928       .  S
O579        C590   1.274       .  A
O579       Cd584   2.060       .  S
Cd580       O582   2.060       .  S
Cd580       O583   2.008       .  S
Cd581       O585   2.100       .  S
Cd581       O594   2.107       .  S
Cd581       O583   2.016       .  S
O582        C592   1.275       .  A
O583       Cd584   1.991       .  S
Cd584       O586   2.067       .  S
O585        C592   1.280       .  A
C587        O591   1.272       .  A
C587        C691   1.486       .  S
C588        C619   1.474       .  S
C590        C635   1.475       .  S
C592        C667   1.485       .  S
C593        O594   1.281       .  A
C593        C699   1.483       .  S
C595        C601   1.535   1_655  S
C595       C1076   1.535       .  S
C595        C827   1.527       .  S
C596        H603   1.080       .  S
C596        C597   1.362       .  D
C597        C659   1.468       .  S
C598        C602   1.541       .  S
C598       C1077   1.541   1_455  S
C598        H604   1.110       .  S
C599       C1072   1.535       .  S
C599        H605   1.086       .  S
C599        C600   1.366       .  D
C600       C1075   1.540       .  S
C600        C627   1.482       .  S
C601        H606   1.086       .  S
C601        C602   1.368       .  D
C602        C643   1.490       .  S
C607        C608   1.527       .  S
C607        C613   1.542       .  S
C607        C611   1.532       .  S
C607        C715   1.528       .  S
C608        H615   1.086       .  S
C608        C609   1.365       .  D
C609        C610   1.552       .  S
C609        C707   1.493       .  S
C610        C614   1.547       .  S
C610        C612   1.552       .  S
C610        H616   1.107       .  S
C611        H617   1.084       .  S
C611        C612   1.368       .  D
C612        C675   1.498       .  S
C613        H618   1.078       .  S
C613        C614   1.368       .  D
C614        C683   1.497       .  S
C619        C620   1.405       .  A
C619        C624   1.405       .  A
C620        C621   1.394       .  A
C620        H629   1.084       .  S
C621        C622   1.400       .  A
C621        H630   1.083       .  S
C622        C628   1.401       .  A
C622        C623   1.415       .  A
C623        C625   1.403       .  A
C623        C624   1.407       .  A
C624        H631   1.084       .  S
C625        C626   1.400       .  A
C625        H632   1.083       .  S
C626        C627   1.404       .  A
C626        H633   1.083       .  S
C627        C628   1.404       .  A
C628        H634   1.084       .  S
C635        C636   1.404       .  A
C635        C640   1.407       .  A
C636        C637   1.393       .  A
C636        H645   1.083       .  S
C637        C638   1.400       .  A
C637        H646   1.083       .  S
C638        C644   1.402       .  A
C638        C639   1.414       .  A
C639        C641   1.404       .  A
C639        C640   1.409       .  A
C640        H647   1.084       .  S
C641        C642   1.401       .  A
C641        H648   1.083       .  S
C642        C643   1.407       .  A
C642        H649   1.082       .  S
C643        C644   1.406       .  A
C644        H650   1.083       .  S
C651        C652   1.407       .  A
C651        C656   1.406       .  A
C652        C653   1.395       .  A
C652        H661   1.083       .  S
C653        C654   1.400       .  A
C653        H662   1.084       .  S
C654        C660   1.401       .  A
C654        C655   1.415       .  A
C655        C657   1.403       .  A
C655        C656   1.402       .  A
C656        H663   1.085       .  S
C657        C658   1.397       .  A
C657       H1618   1.085       .  S
C658        C659   1.401       .  A
C658       H1619   1.083   1_455  S
C659        C660   1.399       .  A
H664       C1611   1.085       .  S
H665       C1612   1.083       .  S
C667        C668   1.405       .  A
C667        C672   1.409       .  A
C668        C669   1.400       .  A
C668        H677   1.083       .  S
C669        C670   1.404       .  A
C669        H678   1.084       .  S
C670        C676   1.405       .  A
C670        C671   1.411       .  A
C671        C673   1.402       .  A
C671        C672   1.404       .  A
C672        H679   1.084       .  S
C673        C674   1.399       .  A
C673        H680   1.084       .  S
C674        C675   1.406       .  A
C674        H681   1.079       .  S
C675        C676   1.413       .  A
C676        H682   1.083       .  S
C683        C684   1.410       .  A
C683        C688   1.407       .  A
C684        C685   1.397       .  A
C684        H693   1.082       .  S
C685        C686   1.399       .  A
C685        H694   1.083       .  S
C686        C687   1.415       .  A
C687        C689   1.400       .  A
C687        C688   1.410       .  A
C688        H695   1.082       .  S
C689        H696   1.083       .  S
C690        C691   1.409       .  A
C690        H697   1.084       .  S
C691        C692   1.405       .  A
C692        H698   1.083       .  S
C699        C700   1.408       .  A
C699        C704   1.405       .  A
C700       C1655   1.397   1_455  A
C700        H709   1.083       .  S
C701       C1654   1.397       .  A
C701        C702   1.400       .  A
C701        H710   1.084       .  S
C702        C708   1.407       .  A
C702        C703   1.415       .  A
C703        C705   1.399       .  A
C703       C1658   1.407       .  A
C704       C1657   1.407   1_455  A
C704        H711   1.085       .  S
C705        C706   1.396       .  A
C705       H1666   1.084       .  S
C706        C707   1.411       .  A
C706        H713   1.082       .  S
C707        C708   1.405       .  A
C708        H714   1.080       .  S
H712       C1659   1.084   1_455  S
C715        C716   1.410       .  A
C715        C720   1.410       .  A
C716        C717   1.397       .  A
C716        H725   1.084       .  S
C717        C718   1.401       .  A
C717        H726   1.083       .  S
C718        C724   1.404       .  A
C718        C719   1.410       .  A
C719        C721   1.399       .  A
C719        C720   1.400       .  A
C720        H727   1.075       .  S
C721        C722   1.392       .  A
C721        H728   1.084       .  S
C722        C723   1.408       .  A
C722        H729   1.083       .  S
C723        C724   1.413       .  A
C724        H730   1.077       .  S
C731        C732   1.406       .  A
C731        C736   1.405       .  A
C732        C733   1.397       .  A
C732        H741   1.082       .  S
C733        C734   1.401       .  A
C733        H742   1.084       .  S
C734        C740   1.404       .  A
C734        C735   1.415       .  A
C735        C737   1.403       .  A
C735        C736   1.405       .  A
C736        H743   1.084       .  S
C737        C738   1.398       .  A
C737        H744   1.083       .  S
C738        C739   1.402       .  A
C738        H745   1.082       .  S
C739        C740   1.403       .  A
C740        H746   1.084       .  S
C747        C748   1.401       .  A
C747        C752   1.399       .  A
C748        C749   1.397       .  A
C748        H757   1.084       .  S
C749        C750   1.404       .  A
C749        H758   1.083       .  S
C750        C756   1.401       .  A
C750        C751   1.414       .  A
C751        C753   1.401       .  A
C751        C752   1.401       .  A
C752        H759   1.084       .  S
C753        C754   1.397       .  A
C753        H760   1.084       .  S
C754        C755   1.406       .  A
C754        H761   1.083       .  S
C755        C756   1.408       .  A
C756        H762   1.084       .  S
C763        C764   1.405       .  A
C763        C768   1.405       .  A
C764        C765   1.400       .  A
C764        H773   1.081       .  S
C765        C766   1.403       .  A
C765        H774   1.082       .  S
C766        C772   1.409       .  A
C766        C767   1.414       .  A
C767        C769   1.400       .  A
C767        C768   1.403       .  A
C768        H775   1.082       .  S
C769        C770   1.395       .  A
C769        H776   1.083       .  S
C770        C771   1.405       .  A
C770        H777   1.084       .  S
C771        C772   1.408       .  A
C772        H778   1.083       .  S
C779        C780   1.407       .  A
C779        C784   1.407       .  A
C780        C781   1.395       .  A
C780        H789   1.083       .  S
C781        C782   1.400       .  A
C781        H790   1.084       .  S
C782        C788   1.403       .  A
C782        C783   1.414       .  A
C783        C785   1.401       .  A
C783        C784   1.407       .  A
C784        H791   1.084       .  S
C785        C786   1.399       .  A
C785        H792   1.084       .  S
C786        C787   1.409       .  A
C786        H793   1.082       .  S
C787        C788   1.406       .  A
C788        H794   1.082       .  S
C795        C796   1.404       .  A
C795        C800   1.406       .  A
C796        C797   1.395       .  A
C796       H1759   1.083       .  S
C797        C798   1.401       .  A
C797        H806   1.083       .  S
C798        C804   1.401       .  A
C798        C799   1.414       .  A
C799        C801   1.402       .  A
C799        C800   1.404       .  A
C800        H807   1.083       .  S
C801        C802   1.398       .  A
C801        H808   1.082       .  S
C802        C803   1.407       .  A
C802        H809   1.083       .  S
C803        C804   1.405       .  A
C804        H810   1.083       .  S
H805       C1750   1.083       .  S
C811        C812   1.406       .  A
C811        C816   1.408       .  A
C812        C813   1.398       .  A
C812        H821   1.083       .  S
C813        C814   1.402       .  A
C813        H822   1.084       .  S
C814        C820   1.404       .  A
C814        C815   1.412       .  A
C815        C817   1.402       .  A
C815        C816   1.407       .  A
C816        H823   1.084       .  S
C817        C818   1.399       .  A
C817        H824   1.084       .  S
C818        C819   1.408       .  A
C818        H825   1.081       .  S
C819        C820   1.410       .  A
C820        H826   1.082       .  S
C827       C1305   1.410       .  A
C827        C832   1.410   1_655  A
C828       C1304   1.410   1_545  A
C828        C829   1.396       .  A
C828        H837   1.083       .  S
C829        H838   1.083       .  S
C830       C1785   1.411   1_556  A
C831       C1784   1.411   1_454  A
C831        C833   1.398   1_554  A
C831        C832   1.403       .  A
C832        H839   1.075       .  S
C833        C834   1.393       .  A
C833        H840   1.083       .  S
C834        C835   1.409   1_455  A
C834        H841   1.083       .  S
C835       C1313   1.411       .  A
C836       C1312   1.411   1_545  A
C836        H842   1.079       .  S
C843        C844   1.410       .  A
C843        C848   1.412       .  A
C844        C845   1.401       .  A
C844        H853   1.084       .  S
C845        C846   1.403       .  A
C845        H854   1.085       .  S
C846        C852   1.409       .  A
C846        C847   1.410       .  A
C847        C849   1.399       .  A
C847        C848   1.402       .  A
C848        H855   1.077       .  S
C849        C850   1.392       .  A
C849        H856   1.082       .  S
C850        C851   1.408       .  A
C850        H857   1.085       .  S
C851        C852   1.415       .  A
C852        H858   1.080       .  S
C859        C860   1.405       .  A
C859        C864   1.406       .  A
C860        C861   1.394       .  A
C860        H869   1.083       .  S
C861        C862   1.400       .  A
C861        H870   1.084       .  S
C862        C868   1.402       .  A
C862        C863   1.416       .  A
C863        C865   1.404       .  A
C863        C864   1.407       .  A
C864        H871   1.084       .  S
C865       C1820   1.399       .  A
C865       H1826   1.083       .  S
C866       C1819   1.399       .  A
C866       C1821   1.402       .  A
C866        H873   1.084   1_655  S
C867       C1820   1.402       .  A
C867        C868   1.401       .  A
C868        H874   1.084       .  S
H872       C1819   1.083       .  S
C875        C876   1.404       .  A
C875        C880   1.404       .  A
C876        C877   1.395       .  A
C876        H885   1.083       .  S
C877        C878   1.401       .  A
C877        H886   1.083       .  S
C878        C884   1.400       .  A
C878        C879   1.414       .  A
C879        C881   1.402       .  A
C879        C880   1.402       .  A
C880        H887   1.084       .  S
C881        C882   1.397       .  A
C881        H888   1.083       .  S
C882        C883   1.403       .  A
C882        H889   1.082       .  S
C883        C884   1.403       .  A
C884        H890   1.083       .  S
C891        C892   1.406       .  A
C891        C896   1.408       .  A
C892        C893   1.399       .  A
C892        H901   1.083       .  S
C893        C894   1.403       .  A
C893        H902   1.084       .  S
C894        C900   1.405       .  A
C894        C895   1.414       .  A
C895        C897   1.403       .  A
C895        C896   1.402       .  A
C896        H903   1.084       .  S
C897        C898   1.396       .  A
C897        H904   1.084       .  S
C898        C899   1.401       .  A
C898        H905   1.083       .  S
C899        C900   1.403       .  A
C900        H906   1.083       .  S
C907        C908   1.406       .  A
C907        C912   1.407       .  A
C908        C909   1.398       .  A
C908        H917   1.083       .  S
C909        C910   1.402       .  A
C909        H918   1.084       .  S
C910        C916   1.406       .  A
C910        C911   1.414       .  A
C911        C913   1.401       .  A
C911        C912   1.407       .  A
C912        H919   1.084       .  S
C913        C914   1.398       .  A
C913        H920   1.084       .  S
C914        C915   1.407       .  A
C914        H921   1.082       .  S
C915        C916   1.409       .  A
C916        H922   1.084       .  S
C923        C924   1.407       .  A
C923        C928   1.407       .  A
C924        C925   1.396       .  A
C924        H933   1.081       .  S
C925        C926   1.400       .  A
C925        H934   1.084       .  S
C926       C1886   1.403   1_455  A
C926        C927   1.414       .  A
C927       C1883   1.402   1_455  A
C927        C928   1.405       .  A
C928        H935   1.083       .  S
C929       C1881   1.402       .  A
C929        C930   1.398       .  A
C929       H1890   1.084       .  S
C930        C931   1.406       .  A
C930        H937   1.083       .  S
C931        C932   1.405       .  A
C932       C1880   1.403       .  A
C932        H938   1.085       .  S
H936       C1883   1.084       .  S
C939        C940   1.407       .  A
C939        C944   1.405       .  A
C940        H949   1.083       .  S
C941        C942   1.401       .  A
C941        H950   1.084       .  S
C942        C948   1.405       .  A
C942        C943   1.414       .  A
C943        C945   1.399       .  A
C944        H951   1.085       .  S
C945        C946   1.395       .  A
C945        H952   1.084   1_565  S
C946        C947   1.409       .  A
C946        H953   1.083       .  S
C947        C948   1.406       .  A
C948        H954   1.083       .  S
O955        C971   1.277       .  A
O955       Zn961   2.034       .  S
C956        O972   1.277       .  A
C956        O969   1.272       .  A
C956       C1368   1.483       .  S
O957        C970   1.275       .  A
O957       Cd964   2.064       .  S
O958        C976   1.274       .  A
O958       Cd967   2.065       .  S
O959        C973   1.275       .  A
O959       Cd963   2.070       .  S
O960        C971   1.276       .  A
O960       Cd963   2.065       .  S
Zn961       O972   2.041       .  S
Zn961       O974   2.023       .  S
Zn961       O966   1.953       .  S
O962        C973   1.273       .  A
O962       Cd967   2.056       .  S
Cd963       O965   2.083       .  S
Cd963       O966   1.995       .  S
Cd964       O968   2.075       .  S
Cd964       O977   2.076       .  S
Cd964       O966   1.996       .  S
O965        C975   1.277       .  A
O966       Cd967   1.992       .  S
Cd967       O969   2.053       .  S
O968        C975   1.276       .  A
C970        O974   1.276       .  A
C970       C1408   1.479       .  S
C971       C1336   1.477       .  S
C973       C1352   1.472       .  S
C975       C1384   1.483       .  S
C976        O977   1.276       .  A
C976       C1416   1.481       .  S
C978        C979   1.539       .  S
C978        C984   1.540       .  S
C978        C982   1.543       .  S
C978       C1320   1.533       .  S
C979        H986   1.085       .  S
C979        C980   1.370       .  D
C980        C981   1.538       .  S
C980       C1400   1.489       .  S
C981        C985   1.543       .  S
C981        C983   1.537       .  S
C981        H987   1.104       .  S
C982        H988   1.081       .  S
C982        C983   1.363       .  D
C983       C1424   1.491       .  S
C984        H989   1.084       .  S
C984        C985   1.369       .  D
C985       C1392   1.494       .  S
C990        C996   1.540   1_565  S
C990       C1312   1.525       .  S
C991        H998   1.082       .  S
C991        C992   1.365       .  D
C992       C1376   1.473       .  S
C993        C997   1.532       .  S
C993        H999   1.111       .  S
C994       H1000   1.086       .  S
C994        C995   1.362       .  D
C995       C1344   1.474       .  S
C996       H1001   1.086       .  S
C996        C997   1.366       .  D
C997       C1360   1.478       .  S
O1002      C1018   1.276   1_455  A
C1003      O1496   1.277       .  A
C1003      O1016   1.274       .  A
C1003      C1208   1.477       .  S
O1004      C1017   1.276       .  A
O1005      C1023   1.275       .  A
O1005     Cd1014   2.065       .  S
O1006      C1020   1.273       .  A
O1006     Cd1487   2.060   1_545  S
O1007      C1018   1.273       .  A
O1007     Cd1010   2.050       .  S
Zn1008     O1019   2.034       .  S
Zn1008     O1021   2.036       .  S
O1009      C1020   1.275       .  A
Cd1010     O1483   2.063       .  S
Cd1010     O1012   2.063       .  S
Cd1010     O1013   1.984   1_655  S
Cd1011     O1015   2.083       .  S
Cd1011     O1013   1.998   1_655  S
O1012      C1022   1.274       .  A
Cd1014     O1016   2.063       .  S
O1015      C1022   1.277       .  A
C1017      O1021   1.277       .  A
C1017      C1288   1.483       .  S
C1018      C1232   1.479       .  S
O1019      C1480   1.277       .  A
C1020      C1248   1.480       .  S
C1022      C1256   1.481       .  S
C1023      O1024   1.276       .  A
C1023      C1272   1.474       .  S
C1025      C1026   1.540       .  S
C1025      C1031   1.540       .  S
C1025      C1029   1.542       .  S
C1025      C1200   1.523       .  S
C1026      H1033   1.086       .  S
C1026      C1027   1.364       .  D
C1027      C1028   1.537       .  S
C1027      C1216   1.476       .  S
C1028      C1032   1.534       .  S
C1028      C1030   1.533       .  S
C1028      H1034   1.111       .  S
C1029      H1035   1.083       .  S
C1029      C1030   1.361       .  D
C1030      C1224   1.464       .  S
C1031      H1036   1.086       .  S
C1031      C1032   1.366       .  D
C1032      C1240   1.482       .  S
C1037      C1038   1.543       .  S
C1037      C1043   1.537       .  S
C1037      C1041   1.538       .  S
C1037      C1328   1.529       .  S
C1038      H1045   1.081       .  S
C1038      C1039   1.369       .  D
C1039      C1040   1.536       .  S
C1039      C1280   1.484       .  S
C1040      C1044   1.542       .  S
C1040      C1042   1.540       .  S
C1040      H1046   1.104       .  S
C1041      H1047   1.086       .  S
C1041      C1042   1.368       .  D
C1042      C1264   1.492       .  S
C1043      H1048   1.085       .  S
C1043      C1044   1.367       .  D
C1044      C1296   1.496       .  S
O1049      C1065   1.271       .  A
O1049     Zn1055   1.994       .  S
C1050      O1066   1.272       .  A
C1050      O1063   1.273       .  A
C1050      C1128   1.479       .  S
O1051      C1064   1.282       .  A
O1051     Cd1058   2.117       .  S
O1052      C1070   1.274       .  A
O1052     Cd1061   2.056       .  S
O1053      C1067   1.276       .  A
O1053     Cd1057   2.086       .  S
O1054      C1065   1.275       .  A
O1054     Cd1057   2.086       .  S
Zn1055     O1066   2.005       .  S
Zn1055     O1068   1.991       .  S
Zn1055     O1060   1.927       .  S
O1056      C1067   1.274       .  A
O1056     Cd1061   2.055       .  S
Cd1057     O1059   2.059       .  S
Cd1057     O1060   2.008       .  S
Cd1058     O1062   2.099       .  S
Cd1058     O1071   2.108       .  S
Cd1058     O1060   2.016       .  S
O1059      C1069   1.275       .  A
O1060     Cd1061   1.990       .  S
Cd1061     O1063   2.066       .  S
O1062      C1069   1.280       .  A
C1064      O1068   1.272       .  A
C1064      C1168   1.486       .  S
C1065      C1096   1.474       .  S
C1067      C1112   1.474       .  S
C1069      C1144   1.484       .  S
C1070      O1071   1.281       .  A
C1070      C1176   1.483       .  S
C1072      C1550   1.547       .  S
C1072      C1078   1.535   1_565  S
C1072      C1304   1.526       .  S
C1073      C1549   1.547       .  S
C1073      H1080   1.080       .  S
C1073      C1074   1.363       .  D
C1074      C1552   1.531       .  S
C1074      C1136   1.468       .  S
C1075      C1551   1.530       .  S
C1075      C1079   1.540   1_565  S
C1075      H1081   1.110       .  S
C1076      H1082   1.086       .  S
C1076      C1077   1.366       .  D
C1077      C1104   1.483       .  S
C1078      H1083   1.086       .  S
C1078      C1079   1.368       .  D
C1079      C1120   1.488       .  S
C1084      C1085   1.527       .  S
C1084      C1090   1.543       .  S
C1084      C1088   1.531       .  S
C1084      C1192   1.527       .  S
C1085      H1092   1.086       .  S
C1085      C1086   1.365       .  D
C1086      C1087   1.551       .  S
C1086      C1184   1.493       .  S
C1087      C1091   1.546       .  S
C1087      C1089   1.551       .  S
C1087      H1093   1.107       .  S
C1088      H1094   1.085       .  S
C1088      C1089   1.368       .  D
C1089      C1152   1.496       .  S
C1090      H1095   1.078       .  S
C1090      C1091   1.367       .  D
C1091      C1160   1.496       .  S
C1096      C1097   1.405       .  A
C1096      C1101   1.406       .  A
C1097      C1098   1.394       .  A
C1097      H1106   1.084       .  S
C1098      C1099   1.400       .  A
C1098      H1107   1.083       .  S
C1099      C1105   1.401       .  A
C1099      C1100   1.415       .  A
C1100      C1102   1.404       .  A
C1100      C1101   1.407       .  A
C1101      H1108   1.084       .  S
C1102      C1103   1.400       .  A
C1102      H1109   1.083       .  S
C1103      C1104   1.405       .  A
C1103      H1110   1.083       .  S
C1104      C1105   1.404       .  A
C1105      H1111   1.084       .  S
C1112      C1113   1.404       .  A
C1112      C1117   1.406       .  A
C1113      C1114   1.393       .  A
C1113      H1122   1.083       .  S
C1114      C1115   1.400       .  A
C1114      H1123   1.083       .  S
C1115      C1121   1.401       .  A
C1115      C1116   1.414       .  A
C1116      C1118   1.403       .  A
C1116      C1117   1.408       .  A
C1117      H1124   1.084       .  S
C1118      C1119   1.401       .  A
C1118      H1125   1.083       .  S
C1119      C1120   1.406       .  A
C1119      H1126   1.082       .  S
C1120      C1121   1.405       .  A
C1121      H1127   1.083       .  S
C1128      C1129   1.407       .  A
C1128      C1133   1.407       .  A
C1129      C1130   1.395       .  A
C1129      H1138   1.083       .  S
C1130      C1131   1.400       .  A
C1130      H1139   1.084       .  S
C1131      C1137   1.401       .  A
C1131      C1132   1.415       .  A
C1132      C1134   1.403       .  A
C1132      C1133   1.403       .  A
C1133      H1140   1.085       .  S
C1134      C1135   1.397       .  A
C1135      C1136   1.401       .  A
C1136      C1137   1.399       .  A
C1137      H1620   1.085       .  S
H1143      C1614   1.085       .  S
C1144      C1145   1.405       .  A
C1144      C1149   1.409       .  A
C1145      C1146   1.400       .  A
C1145      H1154   1.083       .  S
C1146      C1147   1.404       .  A
C1146      H1155   1.084       .  S
C1147      C1153   1.405       .  A
C1147      C1148   1.411       .  A
C1148      C1150   1.402       .  A
C1148      C1149   1.404       .  A
C1149      H1156   1.084       .  S
C1150      C1151   1.399       .  A
C1150      H1157   1.084       .  S
C1151      C1152   1.405       .  A
C1151      H1158   1.079       .  S
C1152      C1153   1.413       .  A
C1153      H1159   1.083       .  S
C1160      C1161   1.410       .  A
C1160      C1165   1.407       .  A
C1161      C1162   1.397       .  A
C1161      H1170   1.082       .  S
C1162      C1163   1.399   1_545  A
C1162      H1171   1.083   1_545  S
C1163      C1646   1.410       .  A
C1163      C1164   1.415   1_565  A
C1164      C1166   1.400       .  A
C1164      C1165   1.409       .  A
C1165      H1172   1.082       .  S
C1166      C1644   1.397   1_545  A
C1166      H1173   1.083       .  S
C1167      C1643   1.398       .  A
C1167      C1168   1.409       .  A
C1167      H1174   1.084       .  S
C1168      C1169   1.405       .  A
C1169      C1640   1.410       .  A
C1169      H1175   1.083       .  S
C1176      C1177   1.408       .  A
C1176      C1181   1.405       .  A
C1177      H1186   1.083       .  S
C1178      C1179   1.400       .  A
C1178      H1187   1.084       .  S
C1179      C1185   1.407       .  A
C1179      C1180   1.415       .  A
C1180      C1182   1.399       .  A
C1181      H1188   1.085       .  S
C1182      C1183   1.396       .  A
C1183      C1184   1.410       .  A
C1183      H1190   1.082       .  S
C1184      C1185   1.404       .  A
C1185      H1191   1.080       .  S
C1192      C1193   1.410       .  A
C1192      C1197   1.409       .  A
C1193      C1194   1.397       .  A
C1193      H1202   1.084       .  S
C1194      C1195   1.401       .  A
C1194      H1203   1.084       .  S
C1195      C1201   1.404       .  A
C1195      C1196   1.410       .  A
C1196      C1198   1.398       .  A
C1196      C1197   1.400       .  A
C1197      H1204   1.075       .  S
C1198      C1199   1.391       .  A
C1198      H1205   1.085       .  S
C1199      C1200   1.408       .  A
C1199      H1206   1.083       .  S
C1200      C1201   1.412       .  A
C1201      H1207   1.080       .  S
C1208      C1209   1.406       .  A
C1208      C1213   1.404       .  A
C1209      C1210   1.398       .  A
C1209      H1218   1.082       .  S
C1210      C1211   1.402       .  A
C1210      H1219   1.084       .  S
C1211      C1217   1.404       .  A
C1211      C1212   1.415       .  A
C1212      C1214   1.403       .  A
C1212      C1213   1.404       .  A
C1213      H1220   1.084       .  S
C1214      C1215   1.398       .  A
C1214      H1221   1.083       .  S
C1215      C1216   1.402       .  A
C1215      H1222   1.082       .  S
C1216      C1217   1.404       .  A
C1217      H1223   1.084       .  S
C1224      C1225   1.400       .  A
C1224      C1229   1.400       .  A
C1225      C1226   1.395       .  A
C1225      H1234   1.084       .  S
C1226      C1227   1.403       .  A
C1226      H1235   1.083       .  S
C1227      C1233   1.399       .  A
C1227      C1228   1.414       .  A
C1228      C1230   1.402       .  A
C1228      C1229   1.401       .  A
C1229      H1236   1.084       .  S
C1230      C1231   1.398       .  A
C1230      H1237   1.084       .  S
C1231      C1232   1.406       .  A
C1231      H1238   1.083   1_655  S
C1232      C1233   1.407       .  A
C1233      H1239   1.084       .  S
C1240      C1241   1.405       .  A
C1240      C1245   1.403       .  A
C1241      C1242   1.400       .  A
C1241      H1250   1.082       .  S
C1242      C1243   1.404       .  A
C1242      H1251   1.082       .  S
C1243      C1249   1.409       .  A
C1243      C1244   1.415       .  A
C1244      C1246   1.399       .  A
C1244      C1245   1.403       .  A
C1245      H1252   1.082       .  S
C1246      C1247   1.394       .  A
C1246      H1253   1.083       .  S
C1247      C1248   1.405       .  A
C1247      H1254   1.084       .  S
C1248      C1249   1.408       .  A
C1249      H1255   1.083       .  S
C1256      C1257   1.407       .  A
C1256      C1261   1.407       .  A
C1257      C1258   1.396       .  A
C1257      H1266   1.083       .  S
C1258      C1259   1.401       .  A
C1258      H1267   1.084       .  S
C1259      C1265   1.403       .  A
C1259      C1260   1.413       .  A
C1260      C1262   1.401       .  A
C1260      C1261   1.406       .  A
C1261      H1268   1.084       .  S
C1262      C1263   1.398       .  A
C1262      H1269   1.084       .  S
C1263      C1264   1.409       .  A
C1263      H1270   1.082       .  S
C1264      C1265   1.407       .  A
C1265      H1271   1.082       .  S
C1272      C1273   1.404       .  A
C1272      C1277   1.406       .  A
C1273      C1274   1.395       .  A
C1274      C1275   1.401       .  A
C1274      H1283   1.083       .  S
C1275      C1281   1.401       .  A
C1275      C1276   1.414       .  A
C1276      C1278   1.402       .  A
C1276      C1277   1.403       .  A
C1277      H1284   1.083       .  S
C1278      C1279   1.397       .  A
C1278      H1285   1.082       .  S
C1279      C1280   1.406       .  A
C1279      H1286   1.083       .  S
C1280      C1281   1.405       .  A
C1281      H1287   1.083       .  S
C1288      C1289   1.406       .  A
C1288      C1293   1.407       .  A
C1289      C1290   1.398       .  A
C1289      H1298   1.083       .  S
C1290      C1291   1.402       .  A
C1290      H1299   1.084       .  S
C1291      C1297   1.404       .  A
C1291      C1292   1.412       .  A
C1292      C1294   1.401       .  A
C1292      C1293   1.407       .  A
C1293      H1300   1.084       .  S
C1294      C1295   1.399       .  A
C1294      H1301   1.084       .  S
C1295      C1296   1.408       .  A
C1295      H1302   1.081       .  S
C1296      C1297   1.410       .  A
C1297      H1303   1.082       .  S
C1304      C1309   1.410       .  A
C1305      C1306   1.397       .  A
C1305      H1314   1.083       .  S
C1306      C1784   1.400   1_554  A
C1306      H1315   1.083       .  S
C1307      C1783   1.400   1_556  A
C1307      C1790   1.405       .  A
C1308      C1310   1.399   1_554  A
C1308      C1309   1.402       .  A
C1309      H1316   1.074       .  S
C1310      C1311   1.393       .  A
C1310      H1317   1.083       .  S
C1311      C1312   1.409       .  A
C1311      H1318   1.083       .  S
C1313      C1784   1.406       .  A
C1313      H1319   1.079       .  S
C1320      C1321   1.409       .  A
C1320      C1325   1.413       .  A
C1321      C1322   1.401       .  A
C1321      H1330   1.085       .  S
C1322      C1323   1.403       .  A
C1322      H1331   1.083       .  S
C1323      C1329   1.409       .  A
C1323      C1324   1.410       .  A
C1324      C1326   1.400       .  A
C1324      C1325   1.402       .  A
C1325      H1332   1.072       .  S
C1326      C1327   1.393       .  A
C1326      H1333   1.078       .  S
C1327      C1328   1.408       .  A
C1327      H1334   1.086       .  S
C1328      C1329   1.415       .  A
C1329      H1335   1.078       .  S
C1336      C1337   1.405       .  A
C1336      C1341   1.406       .  A
C1337      C1338   1.395       .  A
C1337      H1346   1.083       .  S
C1338      C1339   1.400       .  A
C1338      H1347   1.084       .  S
C1339      C1345   1.402       .  A
C1339      C1340   1.416       .  A
C1340      C1342   1.404       .  A
C1340      C1341   1.406       .  A
C1341      H1348   1.084       .  S
C1343      H1350   1.084       .  S
C1344      C1345   1.401       .  A
C1345      H1351   1.084       .  S
C1352      C1353   1.404       .  A
C1352      C1357   1.404       .  A
C1353      C1354   1.395       .  A
C1353      H1362   1.083       .  S
C1354      C1355   1.401       .  A
C1354      H1363   1.083       .  S
C1355      C1361   1.400       .  A
C1355      C1356   1.414       .  A
C1356      C1358   1.402       .  A
C1356      C1357   1.402       .  A
C1357      H1364   1.084       .  S
C1358      C1359   1.396       .  A
C1358      H1365   1.083       .  S
C1359      C1360   1.403       .  A
C1359      H1366   1.081       .  S
C1360      C1361   1.404       .  A
C1361      H1367   1.083       .  S
C1368      C1369   1.406       .  A
C1368      C1373   1.408       .  A
C1369      C1370   1.399       .  A
C1369      H1378   1.083       .  S
C1370      C1371   1.403       .  A
C1370      H1379   1.084       .  S
C1371      C1377   1.405       .  A
C1371      C1372   1.414       .  A
C1372      C1374   1.403       .  A
C1372      C1373   1.402       .  A
C1373      H1380   1.085       .  S
C1374      C1375   1.397       .  A
C1374      H1381   1.084       .  S
C1375      C1376   1.401       .  A
C1375      H1382   1.083   1_545  S
C1376      C1377   1.403       .  A
C1377      H1383   1.083       .  S
C1384      C1385   1.406       .  A
C1384      C1389   1.407       .  A
C1385      C1386   1.398       .  A
C1385      H1394   1.083       .  S
C1386      C1387   1.402       .  A
C1386      H1395   1.084       .  S
C1387      C1393   1.406       .  A
C1387      C1388   1.413       .  A
C1388      C1390   1.401       .  A
C1388      C1389   1.406       .  A
C1389      H1396   1.084       .  S
C1390      C1391   1.397       .  A
C1390      H1397   1.084       .  S
C1391      C1392   1.407       .  A
C1391      H1398   1.082       .  S
C1392      C1393   1.410       .  A
C1393      H1399   1.083       .  S
C1400      C1401   1.407       .  A
C1400      C1405   1.407       .  A
C1401      C1402   1.396       .  A
C1401      H1410   1.082       .  S
C1402      C1403   1.400       .  A
C1402      H1411   1.084       .  S
C1403      C1404   1.414       .  A
C1404      C1405   1.405       .  A
C1405      H1412   1.083       .  S
C1406      C1407   1.397       .  A
C1407      C1408   1.406       .  A
C1407      H1414   1.083       .  S
C1408      C1409   1.405       .  A
C1409      H1415   1.085       .  S
C1416      C1417   1.407   1_545  A
C1416      C1421   1.406       .  A
C1417      C1895   1.397       .  A
C1417      H1426   1.083       .  S
C1418      C1894   1.397       .  A
C1418      C1419   1.401       .  A
C1418      H1427   1.084       .  S
C1419      C1425   1.405       .  A
C1419      C1420   1.414       .  A
C1420      C1422   1.399       .  A
C1420      C1898   1.403       .  A
C1421      C1897   1.404   1_545  A
C1421      H1428   1.085       .  S
C1422      C1423   1.395       .  A
C1422      H1429   1.084       .  S
C1423      C1424   1.409       .  A
C1423      H1430   1.083       .  S
C1424      C1425   1.406       .  A
C1425      H1431   1.083       .  S
O1432      C1448   1.276       .  A
O1432     Zn1438   2.032       .  S
C1433      O1449   1.276       .  A
C1433      O1446   1.272       .  A
C1433      C1845   1.483       .  S
O1434      C1447   1.275       .  A
O1434     Cd1441   2.065       .  S
O1435      C1453   1.274       .  A
O1435     Cd1444   2.061       .  S
O1436      C1450   1.275       .  A
O1436     Cd1440   2.070       .  S
O1437      C1448   1.276       .  A
O1437     Cd1440   2.066       .  S
Zn1438     O1449   2.040       .  S
Zn1438     O1451   2.020       .  S
Zn1438     O1443   1.952       .  S
O1439      C1450   1.273       .  A
O1439     Cd1444   2.055       .  S
Cd1440     O1442   2.082       .  S
Cd1440     O1443   1.995       .  S
Cd1441     O1445   2.076       .  S
Cd1441     O1454   2.077       .  S
Cd1441     O1443   1.995       .  S
O1442      C1452   1.276       .  A
O1443     Cd1444   1.991       .  S
Cd1444     O1446   2.052       .  S
O1445      C1452   1.276       .  A
C1447      O1451   1.276       .  A
C1447      C1885   1.479       .  S
C1448      C1813   1.477       .  S
C1450      C1829   1.472       .  S
C1452      C1861   1.483       .  S
C1453      O1454   1.276       .  A
C1453      C1893   1.481       .  S
C1455      C1456   1.540       .  S
C1455      C1461   1.540       .  S
C1455      C1459   1.543       .  S
C1455      C1797   1.534       .  S
C1456      H1463   1.085       .  S
C1456      C1457   1.370       .  D
C1457      C1458   1.538       .  S
C1457      C1877   1.490       .  S
C1458      C1462   1.542       .  S
C1458      C1460   1.538       .  S
C1458      H1464   1.105       .  S
C1459      H1465   1.082       .  S
C1459      C1460   1.364       .  D
C1460      C1901   1.492       .  S
C1461      H1466   1.085       .  S
C1461      C1462   1.369       .  D
C1462      C1869   1.493       .  S
C1467      C1473   1.540       .  S
C1467      C1789   1.525       .  S
C1468      H1475   1.082       .  S
C1468      C1469   1.365       .  D
C1469      C1853   1.472       .  S
C1470      C1474   1.531       .  S
C1470      H1476   1.111       .  S
C1471      H1477   1.086       .  S
C1471      C1472   1.363       .  D
C1472      C1821   1.474       .  S
C1473      H1478   1.086       .  S
C1473      C1474   1.366       .  D
C1474      C1837   1.477       .  S
O1479      C1495   1.276   1_455  A
C1480      O1493   1.275       .  A
C1480      C1685   1.478       .  S
O1481      C1494   1.276       .  A
O1482      C1500   1.275       .  A
O1482     Cd1491   2.066       .  S
O1483      C1497   1.273       .  A
O1484      C1495   1.273       .  A
O1484     Cd1487   2.052       .  S
Zn1485     O1496   2.034   1_565  S
Zn1485     O1498   2.036       .  S
O1486      C1497   1.276       .  A
Cd1487     O1489   2.061       .  S
Cd1487     O1490   1.984   1_665  S
Cd1488     O1492   2.087   1_545  S
Cd1488     O1490   2.000   1_655  S
O1489      C1499   1.274       .  A
Cd1491     O1493   2.062       .  S
O1492      C1499   1.277       .  A
C1494      O1498   1.277       .  A
C1494      C1765   1.484       .  S
C1495      C1709   1.479       .  S
C1497      C1725   1.481       .  S
C1499      C1733   1.481       .  S
C1500      O1501   1.275       .  A
C1500      C1749   1.474       .  S
C1502      C1503   1.540       .  S
C1502      C1508   1.540       .  S
C1502      C1506   1.542       .  S
C1502      C1677   1.524       .  S
C1503      H1510   1.086       .  S
C1503      C1504   1.365       .  D
C1504      C1505   1.537       .  S
C1504      C1693   1.476       .  S
C1505      C1509   1.534       .  S
C1505      C1507   1.534       .  S
C1505      H1511   1.111       .  S
C1506      H1512   1.082       .  S
C1506      C1507   1.361       .  D
C1507      C1701   1.467       .  S
C1508      H1513   1.086       .  S
C1508      C1509   1.366       .  D
C1509      C1717   1.485       .  S
C1514      C1515   1.544       .  S
C1514      C1520   1.536       .  S
C1514      C1518   1.538       .  S
C1514      C1805   1.530       .  S
C1515      H1522   1.082       .  S
C1515      C1516   1.370       .  D
C1516      C1517   1.537       .  S
C1516      C1757   1.485       .  S
C1517      C1521   1.543       .  S
C1517      C1519   1.540       .  S
C1517      H1523   1.104       .  S
C1518      H1524   1.086       .  S
C1518      C1519   1.367       .  D
C1519      C1741   1.492       .  S
C1520      H1525   1.085       .  S
C1520      C1521   1.367       .  D
C1521      C1773   1.496       .  S
O1526      C1542   1.271       .  A
O1526     Zn1532   1.993       .  S
C1527      O1543   1.272       .  A
C1527      O1540   1.273       .  A
C1527      C1605   1.479       .  S
O1528      C1541   1.281       .  A
O1528     Cd1535   2.117       .  S
O1529      C1547   1.274       .  A
O1529     Cd1538   2.058       .  S
O1530      C1544   1.276       .  A
O1530     Cd1534   2.087       .  S
O1531      C1542   1.275       .  A
O1531     Cd1534   2.085       .  S
Zn1532     O1543   2.003       .  S
Zn1532     O1545   1.993       .  S
Zn1532     O1537   1.928       .  S
O1533      C1544   1.274       .  A
O1533     Cd1538   2.060       .  S
Cd1534     O1536   2.060       .  S
Cd1534     O1537   2.008       .  S
Cd1535     O1539   2.100       .  S
Cd1535     O1548   2.107       .  S
Cd1535     O1537   2.016       .  S
O1536      C1546   1.275       .  A
O1537     Cd1538   1.991       .  S
Cd1538     O1540   2.067       .  S
O1539      C1546   1.280       .  A
C1541      O1545   1.272       .  A
C1541      C1645   1.486       .  S
C1542      C1573   1.474       .  S
C1544      C1589   1.475       .  S
C1546      C1621   1.485       .  S
C1547      O1548   1.281       .  A
C1547      C1653   1.483       .  S
C1549      C1555   1.535       .  S
C1549      C1781   1.527       .  S
C1550      H1557   1.080       .  S
C1550      C1551   1.362       .  D
C1551      C1613   1.468       .  S
C1552      C1556   1.541       .  S
C1552      H1558   1.110       .  S
C1553      H1559   1.086       .  S
C1553      C1554   1.366       .  D
C1554      C1581   1.482       .  S
C1555      H1560   1.086       .  S
C1555      C1556   1.368       .  D
C1556      C1597   1.490       .  S
C1561      C1562   1.527       .  S
C1561      C1567   1.542       .  S
C1561      C1565   1.532       .  S
C1561      C1669   1.528       .  S
C1562      H1569   1.086       .  S
C1562      C1563   1.365       .  D
C1563      C1564   1.552       .  S
C1563      C1661   1.493       .  S
C1564      C1568   1.547       .  S
C1564      C1566   1.552       .  S
C1564      H1570   1.107       .  S
C1565      H1571   1.085       .  S
C1565      C1566   1.368       .  D
C1566      C1629   1.498       .  S
C1567      H1572   1.078       .  S
C1567      C1568   1.368       .  D
C1568      C1637   1.497       .  S
C1573      C1574   1.405       .  A
C1573      C1578   1.405       .  A
C1574      C1575   1.394       .  A
C1574      H1583   1.084       .  S
C1575      C1576   1.400       .  A
C1575      H1584   1.083       .  S
C1576      C1582   1.401       .  A
C1576      C1577   1.415       .  A
C1577      C1579   1.403       .  A
C1577      C1578   1.407       .  A
C1578      H1585   1.084       .  S
C1579      C1580   1.400       .  A
C1579      H1586   1.083       .  S
C1580      C1581   1.404       .  A
C1580      H1587   1.083       .  S
C1581      C1582   1.404       .  A
C1582      H1588   1.084       .  S
C1589      C1590   1.404       .  A
C1589      C1594   1.407       .  A
C1590      C1591   1.393       .  A
C1590      H1599   1.083       .  S
C1591      C1592   1.400       .  A
C1591      H1600   1.083       .  S
C1592      C1598   1.402       .  A
C1592      C1593   1.414       .  A
C1593      C1595   1.404       .  A
C1593      C1594   1.409       .  A
C1594      H1601   1.084       .  S
C1595      C1596   1.401       .  A
C1595      H1602   1.083       .  S
C1596      C1597   1.407       .  A
C1596      H1603   1.082       .  S
C1597      C1598   1.406       .  A
C1598      H1604   1.083       .  S
C1605      C1606   1.407       .  A
C1605      C1610   1.406       .  A
C1606      C1607   1.395       .  A
C1606      H1615   1.083       .  S
C1607      C1608   1.400       .  A
C1607      H1616   1.084       .  S
C1608      C1614   1.401       .  A
C1608      C1609   1.415       .  A
C1609      C1611   1.403       .  A
C1609      C1610   1.402       .  A
C1610      H1617   1.085       .  S
C1611      C1612   1.397       .  A
C1612      C1613   1.401       .  A
C1613      C1614   1.399       .  A
C1621      C1622   1.405       .  A
C1621      C1626   1.409       .  A
C1622      C1623   1.400       .  A
C1622      H1631   1.083       .  S
C1623      C1624   1.404       .  A
C1623      H1632   1.084       .  S
C1624      C1630   1.405       .  A
C1624      C1625   1.411       .  A
C1625      C1627   1.402       .  A
C1625      C1626   1.404       .  A
C1626      H1633   1.084       .  S
C1627      C1628   1.399       .  A
C1627      H1634   1.084       .  S
C1628      C1629   1.406       .  A
C1628      H1635   1.079       .  S
C1629      C1630   1.413       .  A
C1630      H1636   1.083       .  S
C1637      C1638   1.410       .  A
C1637      C1642   1.407       .  A
C1638      C1639   1.397       .  A
C1638      H1647   1.082       .  S
C1639      C1640   1.399       .  A
C1639      H1648   1.083       .  S
C1640      C1641   1.415       .  A
C1641      C1643   1.400       .  A
C1641      C1642   1.410       .  A
C1642      H1649   1.082       .  S
C1643      H1650   1.083       .  S
C1644      C1645   1.409       .  A
C1644      H1651   1.084       .  S
C1645      C1646   1.405       .  A
C1646      H1652   1.083       .  S
C1653      C1654   1.408       .  A
C1653      C1658   1.405       .  A
C1654      H1663   1.083       .  S
C1655      C1656   1.400       .  A
C1655      H1664   1.084       .  S
C1656      C1662   1.407       .  A
C1656      C1657   1.415       .  A
C1657      C1659   1.399       .  A
C1658      H1665   1.085       .  S
C1659      C1660   1.396       .  A
C1660      C1661   1.411       .  A
C1660      H1667   1.082       .  S
C1661      C1662   1.405       .  A
C1662      H1668   1.080       .  S
C1669      C1670   1.410       .  A
C1669      C1674   1.410       .  A
C1670      C1671   1.397       .  A
C1670      H1679   1.084       .  S
C1671      C1672   1.401       .  A
C1671      H1680   1.083       .  S
C1672      C1678   1.404       .  A
C1672      C1673   1.410       .  A
C1673      C1675   1.399       .  A
C1673      C1674   1.400       .  A
C1674      H1681   1.075       .  S
C1675      C1676   1.392       .  A
C1675      H1682   1.084       .  S
C1676      C1677   1.408       .  A
C1676      H1683   1.083       .  S
C1677      C1678   1.413       .  A
C1678      H1684   1.078       .  S
C1685      C1686   1.406       .  A
C1685      C1690   1.405       .  A
C1686      C1687   1.397       .  A
C1686      H1695   1.082       .  S
C1687      C1688   1.401       .  A
C1687      H1696   1.084       .  S
C1688      C1694   1.404       .  A
C1688      C1689   1.415       .  A
C1689      C1691   1.403       .  A
C1689      C1690   1.405       .  A
C1690      H1697   1.084       .  S
C1691      C1692   1.398       .  A
C1691      H1698   1.083       .  S
C1692      C1693   1.402       .  A
C1692      H1699   1.082       .  S
C1693      C1694   1.403       .  A
C1694      H1700   1.084       .  S
C1701      C1702   1.401       .  A
C1701      C1706   1.399       .  A
C1702      C1703   1.397       .  A
C1702      H1711   1.084       .  S
C1703      C1704   1.404       .  A
C1703      H1712   1.083       .  S
C1704      C1710   1.401       .  A
C1704      C1705   1.414       .  A
C1705      C1707   1.401       .  A
C1705      C1706   1.401       .  A
C1706      H1713   1.084       .  S
C1707      C1708   1.397       .  A
C1707      H1714   1.084       .  S
C1708      C1709   1.406       .  A
C1708      H1715   1.083   1_655  S
C1709      C1710   1.408       .  A
C1710      H1716   1.084       .  S
C1717      C1718   1.405       .  A
C1717      C1722   1.405       .  A
C1718      C1719   1.400       .  A
C1718      H1727   1.081       .  S
C1719      C1720   1.404       .  A
C1719      H1728   1.082       .  S
C1720      C1726   1.409       .  A
C1720      C1721   1.414       .  A
C1721      C1723   1.400       .  A
C1721      C1722   1.403       .  A
C1722      H1729   1.082       .  S
C1723      C1724   1.395       .  A
C1723      H1730   1.083       .  S
C1724      C1725   1.405       .  A
C1724      H1731   1.084       .  S
C1725      C1726   1.408       .  A
C1726      H1732   1.083       .  S
C1733      C1734   1.407       .  A
C1733      C1738   1.407       .  A
C1734      C1735   1.395       .  A
C1734      H1743   1.083       .  S
C1735      C1736   1.400       .  A
C1735      H1744   1.084       .  S
C1736      C1742   1.403       .  A
C1736      C1737   1.414       .  A
C1737      C1739   1.401       .  A
C1737      C1738   1.407       .  A
C1738      H1745   1.084       .  S
C1739      C1740   1.399       .  A
C1739      H1746   1.084       .  S
C1740      C1741   1.409       .  A
C1740      H1747   1.082       .  S
C1741      C1742   1.406       .  A
C1742      H1748   1.082       .  S
C1749      C1750   1.404       .  A
C1749      C1754   1.406       .  A
C1750      C1751   1.395       .  A
C1751      C1752   1.401       .  A
C1751      H1760   1.083       .  S
C1752      C1758   1.401       .  A
C1752      C1753   1.414       .  A
C1753      C1755   1.402       .  A
C1753      C1754   1.404       .  A
C1754      H1761   1.083       .  S
C1755      C1756   1.398       .  A
C1755      H1762   1.082       .  S
C1756      C1757   1.407       .  A
C1756      H1763   1.083       .  S
C1757      C1758   1.405       .  A
C1758      H1764   1.083       .  S
C1765      C1766   1.406       .  A
C1765      C1770   1.408       .  A
C1766      C1767   1.398       .  A
C1766      H1775   1.083       .  S
C1767      C1768   1.402       .  A
C1767      H1776   1.084       .  S
C1768      C1774   1.404       .  A
C1768      C1769   1.412       .  A
C1769      C1771   1.402       .  A
C1769      C1770   1.407       .  A
C1770      H1777   1.084       .  S
C1771      C1772   1.399       .  A
C1771      H1778   1.084       .  S
C1772      C1773   1.408       .  A
C1772      H1779   1.081       .  S
C1773      C1774   1.410       .  A
C1774      H1780   1.082       .  S
C1781      C1786   1.410       .  A
C1782      C1783   1.396       .  A
C1782      H1791   1.083       .  S
C1783      H1792   1.083       .  S
C1785      C1787   1.398   1_554  A
C1785      C1786   1.403       .  A
C1786      H1793   1.075       .  S
C1787      C1788   1.393       .  A
C1787      H1794   1.083       .  S
C1788      C1789   1.409       .  A
C1788      H1795   1.083       .  S
C1790      H1796   1.079       .  S
C1797      C1798   1.410       .  A
C1797      C1802   1.412       .  A
C1798      C1799   1.401       .  A
C1798      H1807   1.084       .  S
C1799      C1800   1.403       .  A
C1799      H1808   1.085       .  S
C1800      C1806   1.409       .  A
C1800      C1801   1.410       .  A
C1801      C1803   1.399       .  A
C1801      C1802   1.402       .  A
C1802      H1809   1.077       .  S
C1803      C1804   1.392       .  A
C1803      H1810   1.082       .  S
C1804      C1805   1.408       .  A
C1804      H1811   1.085       .  S
C1805      C1806   1.415       .  A
C1806      H1812   1.080       .  S
C1813      C1814   1.405       .  A
C1813      C1818   1.406       .  A
C1814      C1815   1.394       .  A
C1814      H1823   1.083       .  S
C1815      C1816   1.400       .  A
C1815      H1824   1.084       .  S
C1816      C1822   1.402       .  A
C1816      C1817   1.416       .  A
C1817      C1819   1.404       .  A
C1817      C1818   1.407       .  A
C1818      H1825   1.084       .  S
C1820      H1827   1.084       .  S
C1821      C1822   1.401       .  A
C1822      H1828   1.084       .  S
C1829      C1830   1.404       .  A
C1829      C1834   1.404       .  A
C1830      C1831   1.395       .  A
C1830      H1839   1.083       .  S
C1831      C1832   1.401       .  A
C1831      H1840   1.083       .  S
C1832      C1838   1.400       .  A
C1832      C1833   1.414       .  A
C1833      C1835   1.402       .  A
C1833      C1834   1.402       .  A
C1834      H1841   1.084       .  S
C1835      C1836   1.397       .  A
C1835      H1842   1.083       .  S
C1836      C1837   1.403       .  A
C1836      H1843   1.082       .  S
C1837      C1838   1.403       .  A
C1838      H1844   1.083       .  S
C1845      C1846   1.406       .  A
C1845      C1850   1.408       .  A
C1846      C1847   1.399       .  A
C1846      H1855   1.083       .  S
C1847      C1848   1.403       .  A
C1847      H1856   1.084       .  S
C1848      C1854   1.405       .  A
C1848      C1849   1.414       .  A
C1849      C1851   1.403       .  A
C1849      C1850   1.402       .  A
C1850      H1857   1.085       .  S
C1851      C1852   1.396       .  A
C1851      H1858   1.084       .  S
C1852      C1853   1.401       .  A
C1852      H1859   1.083       .  S
C1853      C1854   1.403       .  A
C1854      H1860   1.083       .  S
C1861      C1862   1.406       .  A
C1861      C1866   1.407       .  A
C1862      C1863   1.398       .  A
C1862      H1871   1.083       .  S
C1863      C1864   1.402       .  A
C1863      H1872   1.084       .  S
C1864      C1870   1.406       .  A
C1864      C1865   1.414       .  A
C1865      C1867   1.401       .  A
C1865      C1866   1.407       .  A
C1866      H1873   1.084       .  S
C1867      C1868   1.398       .  A
C1867      H1874   1.084       .  S
C1868      C1869   1.407       .  A
C1868      H1875   1.082       .  S
C1869      C1870   1.409       .  A
C1870      H1876   1.084       .  S
C1877      C1878   1.407       .  A
C1877      C1882   1.407       .  A
C1878      C1879   1.396       .  A
C1878      H1887   1.081       .  S
C1879      C1880   1.400       .  A
C1879      H1888   1.084       .  S
C1880      C1881   1.414       .  A
C1881      C1882   1.405       .  A
C1882      H1889   1.083       .  S
C1883      C1884   1.398       .  A
C1884      C1885   1.406       .  A
C1884      H1891   1.083       .  S
C1885      C1886   1.405       .  A
C1886      H1892   1.085       .  S
C1893      C1894   1.407       .  A
C1893      C1898   1.405       .  A
C1894      H1903   1.083       .  S
C1895      C1896   1.401       .  A
C1895      H1904   1.084       .  S
C1896      C1902   1.405       .  A
C1896      C1897   1.414       .  A
C1897      C1899   1.399       .  A
C1898      H1905   1.085       .  S
C1899      C1900   1.395       .  A
C1899      H1906   1.084   1_565  S
C1900      C1901   1.409       .  A
C1900      H1907   1.083       .  S
C1901      C1902   1.406       .  A
C1902      H1908   1.083       .  S
