geometry optimzed in LAMMPS
_audit_creation_date              2020-11-30 
_audit_creation_method            'lammps2cif' 
_symmetry_space_group_name_H-M    'P1' 
_symmetry_Int_Tables_number       1 
_symmetry_cell_setting            triclinic 
loop_ 
_symmetry_equiv_pos_as_xyz 
  x,y,z 
_cell_length_a                    27.55263472 
_cell_length_b                    27.150080494188057 
_cell_length_c                    27.234290667225576 
_cell_angle_alpha                 89.71249368324756 
_cell_angle_beta                  89.76866223082057 
_cell_angle_gamma                 89.96055436487538 
loop_ 
_atom_site_label 
_atom_site_type_symbol 
_atom_site_fract_x 
_atom_site_fract_y 
_atom_site_fract_z 
_atom_site_charge 
C1          C  0.31812338  0.35671481  0.15177905    -0.01800
C2          C  0.30829709  0.07911947  0.40886552    -0.01800
C3          C  0.07293314  0.08801618  0.14888373    -0.01800
C4          C  0.05856808  0.35880471  0.40626781    -0.01800
C5          C  0.32194647  0.08008495  0.65511617    -0.01800
C6          C  0.07191832  0.08586442  0.92983866    -0.01800
C7          C  0.06273032  0.35151755  0.65880576    -0.01800
C8          C  0.33232959  0.32900799  0.91035214    -0.01800
O9          O  0.38764559  0.36863383  0.08637602    -0.79500
O10         O  0.36936918  0.56725928  0.98775720    -0.79500
O11         O  0.40055131  0.52366677  0.14906204    -0.79500
O12         O  0.37914449  0.41179639  0.92321373    -0.79500
O13         O  0.37529530  0.56287328  0.08470642    -0.79600
O14         O  0.38745299  0.35905485  0.98282316    -0.79500
O15         O  0.37110460  0.51673980  0.92655265    -0.79500
O16         O  0.36970247  0.43507022  0.12295675    -0.79500
C17         C  0.36107160  0.38899625  0.11947704     1.10200
C18         C  0.35039006  0.55414086  0.94679292     1.10100
C19         C  0.37267805  0.55759700  0.13138184     1.10200
C20         C  0.36903361  0.36890168  0.94029806     1.10100
O21         O  0.49767171  0.36900166  0.98221953    -0.79500
O22         O  0.49095986  0.57124517  0.08137103    -0.79600
O23         O  0.47058902  0.41001924  0.14910127    -0.79500
O24         O  0.47960715  0.52227362  0.91928013    -0.79500
O25         O  0.48097483  0.57487332  0.97919208    -0.79500
O26         O  0.50020139  0.38205787  0.08156595    -0.79500
O27         O  0.48286061  0.41499916  0.91924761    -0.79500
O28         O  0.50628649  0.50391494  0.11927217    -0.79500
Co29       Co  0.44144337  0.38414429  0.03228900     1.51500
Co30       Co  0.43074352  0.55363840  0.03255561     1.51700
Co31       Co  0.43735447  0.46859072  0.10925309     1.51600
Co32       Co  0.42926097  0.46719736  0.93937794     1.51500
O33         O  0.43420840  0.46851567  0.02554530    -1.41400
C34         C  0.50667724  0.37832082  0.93702093     1.10100
C35         C  0.51845140  0.54959489  0.11341401     1.10200
C36         C  0.50087088  0.37985983  0.12878536     1.10100
C37         C  0.49512750  0.56367662  0.93565306     1.10100
C38         C  0.33609064  0.59353100  0.16511331    -0.01800
C39         C  0.04855979  0.84233088  0.15289948    -0.01800
C40         C  0.06194683  0.58309379  0.41324358    -0.01800
C41         C  0.32217565  0.85283592  0.40099257    -0.01800
O42         O  0.33355021  0.90947011  0.47771196    -0.79500
O43         O  0.53878813  0.90445441  0.58348362    -0.79500
O44         O  0.49027056  0.91685385  0.43068639    -0.79500
O45         O  0.37991101  0.91329226  0.64106117    -0.79500
O46         O  0.54105267  0.90404078  0.48997762    -0.79600
O47         O  0.33050552  0.90755504  0.57859712    -0.79500
O48         O  0.47915635  0.90490304  0.63727167    -0.79500
O49         O  0.39114327  0.91472583  0.42408964    -0.79500
C50         C  0.35017010  0.89537267  0.43623429     1.10200
C51         C  0.52088562  0.88654421  0.62371435     1.10100
C52         C  0.52718564  0.89221462  0.44653135     1.10200
C53         C  0.34058666  0.89366619  0.62234986     1.10100
O54         O  0.33409797  0.02060659  0.58132869    -0.79500
O55         O  0.54888392  0.00470073  0.48549609    -0.79600
O56         O  0.38649492  0.02908006  0.43141759    -0.79500
O57         O  0.49068546  0.00784446  0.64294269    -0.79500
O58         O  0.54477323  0.00969024  0.58404492    -0.79500
O59         O  0.32547596  0.01802203  0.47998729    -0.79500
O60         O  0.39256351  0.02075133  0.63593921    -0.79500
O61         O  0.48662059  0.03271546  0.44605981    -0.79500
Co62       Co  0.34705980  0.96413253  0.52964054     1.51500
Co63       Co  0.51132214  0.95868724  0.53496045     1.51700
Co64       Co  0.43782901  0.97243972  0.44576164     1.51600
Co65       Co  0.43453830  0.96222992  0.60900427     1.51500
O66         O  0.43051095  0.96398946  0.52795023    -1.41400
C67         C  0.35181831  0.03921789  0.62082368     1.10100
C68         C  0.53237732  0.03623428  0.45418200     1.10200
C69         C  0.34268207  0.04074247  0.44284597     1.10100
C70         C  0.53341097  0.02403756  0.62795333     1.10100
C71         C  0.54539120  0.34270569  0.90433051    -0.01800
C72         C  0.81916557  0.35518034  0.66859056    -0.01800
C73         C  0.56848217  0.06532255  0.66099509    -0.01800
C74         C  0.82489771  0.09330550  0.92177048    -0.01800
C75         C  0.30319265  0.58451747  0.91954326    -0.01800
C76         C  0.30368508  0.85152366  0.64986501    -0.01800
C77         C  0.06290169  0.59192973  0.64920723    -0.01800
C78         C  0.04753168  0.84407354  0.92424448    -0.01800
C79         C  0.55801446  0.85236855  0.41047012    -0.01800
C80         C  0.80536079  0.58267888  0.41623910    -0.01800
C81         C  0.56734095  0.57797698  0.14287279    -0.01800
C82         C  0.82265912  0.85054192  0.16338017    -0.01800
C83         C  0.53323456  0.60140630  0.90474747    -0.01800
C84         C  0.81498684  0.57131271  0.67452616    -0.01800
C85         C  0.54779906  0.84187428  0.65687201    -0.01800
C86         C  0.80899321  0.82862738  0.93449042    -0.01800
O87         O  0.99532840  0.07353115  0.98941370    -0.79500
O88         O  0.87744062  0.85023701  0.99918462    -0.79500
O89         O  0.04011914  0.91349416  0.99132193    -0.79500
O90         O  0.84064134  0.01883209  0.97859296    -0.79500
O91         O  0.97259231  0.87615859  0.97475357    -0.79600
O92         O  0.89131021  0.07919918  0.98870698    -0.79500
O93         O  0.83270805  0.91415732  0.98150639    -0.79500
O94         O  0.04241193  0.00913202  0.98212852    -0.79500
C95         C  0.03322962  0.05391638  0.96822837     1.10200
C96         C  0.84164307  0.86744439  0.97315241     1.10100
C97         C  0.01835137  0.88027261  0.96547494     1.10200
C98         C  0.85490946  0.06202835  0.96534195     1.10100
O99         O  0.88620448  0.07982870  0.09907757    -0.79500
O100        O  0.98407498  0.85677395  0.08544279    -0.79600
O101        O  0.04996257  0.01667464  0.08609539    -0.79500
O102        O  0.83455172  0.92102249  0.09690044    -0.79500
O103        O  0.89498636  0.87300814  0.10488359    -0.79500
O104        O  0.99115957  0.06700463  0.10187357    -0.79500
O105        O  0.82969851  0.02473344  0.09286328    -0.79500
O106        O  0.03322503  0.91902290  0.09664050    -0.79500
Co107      Co  0.93961798  0.05905502  0.04443089     1.51500
Co108      Co  0.93175755  0.88889274  0.03940107     1.51700
Co109      Co  0.01064970  0.96708487  0.03969289     1.51600
Co110      Co  0.84789546  0.97006869  0.03787045     1.51500
O111        O  0.93055654  0.97323468  0.04128853    -1.41400
C112        C  0.84351583  0.06556465  0.11350174     1.10100
C113        C  0.02108145  0.87422405  0.10823688     1.10200
C114        C  0.03610391  0.05594168  0.10932174     1.10100
C115        C  0.85263470  0.88417857  0.11994059     1.10100
C116        C  0.56930899  0.07638662  0.42506020    -0.01800
C117        C  0.80807188  0.09671211  0.15726727    -0.01800
C118        C  0.53981909  0.34208147  0.15852610    -0.01800
C119        C  0.81807625  0.34453985  0.41698104    -0.01800
O120        O  0.98020132  0.40764119  0.43284691    -0.79500
O121        O  0.89656906  0.40240891  0.63302073    -0.79500
O122        O  0.03102718  0.40238332  0.58082911    -0.79500
O123        O  0.83608795  0.40396194  0.49483926    -0.79500
O124        O  0.99601234  0.42167144  0.64902305    -0.79600
O125        O  0.88210589  0.41452959  0.43196944    -0.79500
O126        O  0.82840687  0.41879221  0.59658574    -0.79500
O127        O  0.04246001  0.42020384  0.47865693    -0.79500
C128        C  0.02468283  0.39667032  0.44233447     1.10200
C129        C  0.85034761  0.39303447  0.62935550     1.10100
C130        C  0.02701657  0.39333234  0.62756227     1.10200
C131        C  0.84678957  0.39001698  0.45065203     1.10100
O132        O  0.88445058  0.52833384  0.43589978    -0.79500
O133        O  0.98428255  0.53257531  0.63150244    -0.79600
O134        O  0.03539747  0.53088586  0.49109826    -0.79500
O135        O  0.84189569  0.52905005  0.58923184    -0.79500
O136        O  0.88492096  0.50990047  0.65296279    -0.79500
O137        O  0.98856219  0.52128327  0.42800668    -0.79500
O138        O  0.82439380  0.51717785  0.48595279    -0.79500
O139        O  0.04827692  0.51744752  0.58868181    -0.79500
Co140      Co  0.93416933  0.46867207  0.44888243     1.51500
Co141      Co  0.94008158  0.46719487  0.61971211     1.51700
Co142      Co  0.02049603  0.46747373  0.53566881     1.51600
Co143      Co  0.85139631  0.46729148  0.54027005     1.51500
O144        O  0.93610591  0.46816118  0.53490390    -1.41400
C145        C  0.84039909  0.54027991  0.44776956     1.10100
C146        C  0.02907918  0.54498136  0.62189633     1.10200
C147        C  0.02549545  0.54382674  0.44647351     1.10100
C148        C  0.84866727  0.53470959  0.63610829     1.10100
C149        C  0.73310697  0.34704357  0.30024463    -0.04800
C150        C  0.69352051  0.37772491  0.31169219     0.09300
C151        C  0.69970526  0.40426183  0.35678834    -0.02200
C152        C  0.74245894  0.39865441  0.38698147    -0.00500
C153        C  0.78260303  0.36819261  0.37425059    -0.04100
C154        C  0.77868239  0.35070319  0.32471820     0.02900
C155        C  0.64873518  0.38134088  0.27560846     0.09800
C156        C  0.66381851  0.43842681  0.37470594     0.35700
C157        C  0.81545325  0.36435502  0.28995833     0.39100
C158        C  0.60085266  0.37044103  0.29114794    -0.04400
C159        C  0.56127009  0.36832729  0.25683883     0.02700
C160        C  0.56894110  0.36989251  0.20401126    -0.04100
C161        C  0.60974914  0.39761141  0.19357403    -0.00300
C162        C  0.65197567  0.39603857  0.22462591    -0.02800
C163        C  0.58923236  0.37058375  0.34307341     0.36400
C164        C  0.60315806  0.42964242  0.15198349     0.40000
C165        C  0.51816286  0.39057670  0.27785430     0.39200
C166        C  0.69803895  0.39994992  0.20044821     0.36100
C167        C  0.72833529  0.31202886  0.26131435     0.36800
C168        C  0.74809727  0.43119538  0.42774015     0.40000
N169        N  0.48635761  0.40913392  0.29875810    -0.38000
N170        N  0.57600479  0.37542590  0.38314406    -0.39600
N171        N  0.59266875  0.45186766  0.11715909    -0.37400
N172        N  0.73425945  0.39925324  0.17889722    -0.39800
N173        N  0.63852496  0.46588949  0.39459517    -0.39500
N174        N  0.75247317  0.45945272  0.45878090    -0.37200
N175        N  0.84162832  0.37831366  0.25967149    -0.38200
N176        N  0.72418418  0.28282434  0.23111918    -0.39900
C177        C  0.70343390  0.16563623  0.07631988    -0.04800
C178        C  0.68377548  0.20196982  0.10656124     0.09300
C179        C  0.69258806  0.19556908  0.15567607    -0.02200
C180        C  0.73053447  0.16456484  0.17274009    -0.00500
C181        C  0.76514020  0.13773385  0.13929788    -0.04100
C182        C  0.74706066  0.13922990  0.09000994     0.02900
C183        C  0.65009866  0.24501740  0.09297798     0.09800
C184        C  0.65620030  0.21747356  0.18851928     0.35700
C185        C  0.76199237  0.10131933  0.05749080     0.39100
C186        C  0.60086850  0.24241748  0.07716193    -0.04400
C187        C  0.56902676  0.28372862  0.08378181     0.02700
C188        C  0.57999609  0.32067690  0.11833610    -0.04100
C189        C  0.63126937  0.32974995  0.11722775    -0.00300
C190        C  0.66462642  0.29117890  0.11104514    -0.02800
C191        C  0.57880158  0.19725874  0.06156069     0.36400
C192        C  0.64964424  0.37010839  0.08823258     0.40000
C193        C  0.52525333  0.28721246  0.05585808     0.39200
C194        C  0.71513911  0.30066006  0.12202571     0.36100
C195        C  0.66599486  0.13641754  0.05522111     0.36800
C196        C  0.72239132  0.15873640  0.22500446     0.40000
N197        N  0.48936540  0.28796395  0.03429553    -0.38000
N198        N  0.55649492  0.16303310  0.05029629    -0.39600
N199        N  0.66905982  0.40086783  0.06636911    -0.37400
N200        N  0.75492390  0.30988467  0.13130927    -0.39800
N201        N  0.62734124  0.23668760  0.21246651    -0.39500
N202        N  0.71013586  0.16036954  0.26578252    -0.37200
N203        N  0.77152118  0.06967548  0.03136681    -0.38200
N204        N  0.63484611  0.10966676  0.04575938    -0.39900
C205        C  0.89557596  0.28433729  0.31220889    -0.04800
C206        C  0.88685715  0.23251832  0.31893489     0.09300
C207        C  0.87631293  0.21963468  0.36863452    -0.02200
C208        C  0.86757913  0.25685381  0.40556842    -0.00500
C209        C  0.85961656  0.30778790  0.39270586    -0.04100
C210        C  0.88633474  0.31983166  0.35025876     0.02900
C211        C  0.88033296  0.19527326  0.27507603     0.09800
C212        C  0.87215545  0.16829886  0.38232644     0.35700
C213        C  0.90660159  0.36850125  0.34584162     0.39100
C214        C  0.90415187  0.14808386  0.26325067    -0.04400
C215        C  0.88781829  0.11891194  0.21961686     0.02700
C216        C  0.84015657  0.12721402  0.19866216    -0.04100
C217        C  0.81606043  0.15701766  0.23267820    -0.00300
C218        C  0.83846726  0.20082536  0.24689936    -0.02800
C219        C  0.93549198  0.12476118  0.29818209     0.36400
C220        C  0.80257178  0.12942998  0.27674720     0.40000
C221        C  0.91547679  0.07835408  0.20117894     0.39200
C222        C  0.82897713  0.24571576  0.22083003     0.36100
C223        C  0.91269395  0.30460372  0.26652499     0.36800
C224        C  0.87133132  0.24254889  0.45639367     0.40000
N225        N  0.93656321  0.04617688  0.18339101    -0.38000
N226        N  0.95810234  0.10320817  0.32675712    -0.39600
N227        N  0.79352074  0.11045665  0.31351042    -0.37400
N228        N  0.82381351  0.28196185  0.19908753    -0.39800
N229        N  0.86983605  0.12740136  0.39422890    -0.39500
N230        N  0.87881103  0.22907877  0.49598112    -0.37200
N231        N  0.92408949  0.40678964  0.34073529    -0.38200
N232        N  0.92465263  0.32753795  0.23262592    -0.39900
C233        C  0.49644579  0.14229061  0.31239052    -0.04800
C234        C  0.52640178  0.18287418  0.30165806     0.09300
C235        C  0.57084600  0.18459093  0.32563896    -0.02200
C236        C  0.58564598  0.14532905  0.35663360    -0.00500
C237        C  0.55177827  0.10979721  0.37769795    -0.04100
C238        C  0.50644258  0.10892446  0.35196727     0.02900
C239        C  0.51596235  0.21895987  0.25995874     0.09800
C240        C  0.60287887  0.22630782  0.31741314     0.35700
C241        C  0.47138206  0.07065380  0.35778554     0.39100
C242        C  0.49527571  0.26588766  0.26809902    -0.04400
C243        C  0.48787556  0.29864775  0.22783526     0.02700
C244        C  0.51454991  0.29366036  0.18424949    -0.04100
C245        C  0.52197084  0.24218018  0.17285829    -0.00300
C246        C  0.52555516  0.20618098  0.21085211    -0.02800
C247        C  0.48923147  0.28354917  0.31757742     0.36400
C248        C  0.49815227  0.22114320  0.13067005     0.40000
C249        C  0.45176828  0.33621508  0.22855525     0.39200
C250        C  0.53086340  0.15462905  0.19754555     0.36100
C251        C  0.45994036  0.12889825  0.27740393     0.36800
C252        C  0.63694940  0.14415486  0.36603281     0.40000
N253        N  0.42536805  0.36892132  0.22543268    -0.38000
N254        N  0.48766667  0.29876081  0.35716690    -0.39600
N255        N  0.47702417  0.20204973  0.09934916    -0.37400
N256        N  0.53167490  0.11413911  0.18444745    -0.39800
N257        N  0.62914266  0.25922710  0.31259547    -0.39500
N258        N  0.67847129  0.14679284  0.36972585    -0.37200
N259        N  0.44098918  0.04150448  0.35613708    -0.38200
N260        N  0.43376922  0.11278185  0.24888792    -0.39900
C261        C  0.74085887  0.22273106  0.44206870    -0.04800
C262        C  0.70303618  0.23291800  0.47472799     0.09300
C263        C  0.70287877  0.28350344  0.49052141    -0.02200
C264        C  0.74354446  0.31640610  0.48050616    -0.00500
C265        C  0.77821956  0.30652100  0.44207885    -0.04100
C266        C  0.76587544  0.26090726  0.41788108     0.02900
C267        C  0.66046484  0.19470648  0.48092434     0.09800
C268        C  0.65892057  0.30570723  0.50891765     0.35700
C269        C  0.77141533  0.25206814  0.36600280     0.39100
C270        C  0.66493576  0.14483652  0.49922818    -0.04400
C271        C  0.62621735  0.10995747  0.49424888     0.02700
C272        C  0.58787591  0.11839715  0.46248900    -0.04100
C273        C  0.57665857  0.16983635  0.45802361    -0.00300
C274        C  0.61399468  0.20588217  0.46185063    -0.02800
C275        C  0.70991726  0.12414085  0.51580491     0.36400
C276        C  0.52870051  0.18727001  0.44490418     0.40000
C277        C  0.62487002  0.06441775  0.52100266     0.39200
C278        C  0.60682495  0.25136970  0.43606953     0.36100
C279        C  0.75504281  0.17337497  0.43113151     0.36800
C280        C  0.74611644  0.36059439  0.50906081     0.40000
N281        N  0.62451319  0.02575576  0.53874597    -0.38000
N282        N  0.74415058  0.10179961  0.52636244    -0.39600
N283        N  0.49262448  0.20606760  0.43391303    -0.37400
N284        N  0.60125449  0.28746265  0.41461453    -0.39800
N285        N  0.62389347  0.32689470  0.51927379    -0.39500
N286        N  0.74660995  0.39485552  0.53407520    -0.37200
N287        N  0.77390229  0.24041627  0.32535050    -0.38200
N288        N  0.76901425  0.13424921  0.42357196    -0.39900
C289        C  0.62978003  0.01688160  0.31429126    -0.04800
C290        C  0.68061227  0.02935543  0.31681131     0.09300
C291        C  0.69705674  0.04037239  0.36504397    -0.02200
C292        C  0.66413927  0.04480188  0.40577230    -0.00500
C293        C  0.61224080  0.04424177  0.39906448    -0.04100
C294        C  0.59882930  0.02022018  0.35585354     0.02900
C295        C  0.71422228  0.03226682  0.27033084     0.09800
C296        C  0.74821417  0.04290663  0.37654407     0.35700
C297        C  0.55192817  0.99768761  0.35572924     0.39100
C298        C  0.69541441  0.05375181  0.22701015    -0.04400
C299        C  0.72348218  0.05739455  0.18403895     0.02700
C300        C  0.77502407  0.05752594  0.18607034    -0.04100
C301        C  0.79301251  0.02722156  0.22330189    -0.00300
C302        C  0.76376840  0.01453488  0.26520380    -0.02800
C303        C  0.65134151  0.08230108  0.22809492     0.36400
C304        C  0.83624157  0.99974109  0.21196081     0.40000
C305        C  0.69841856  0.05197461  0.13823092     0.39200
C306        C  0.78894281  0.98622487  0.30156176     0.36100
C307        C  0.60526547  0.00264614  0.26979438     0.36800
C308        C  0.68625776  0.02845476  0.45095209     0.40000
N309        N  0.67771075  0.04198334  0.10287275    -0.38000
N310        N  0.61787769  0.10751624  0.23190297    -0.39600
N311        N  0.86850706  0.97519620  0.20042321    -0.37400
N312        N  0.81516309  0.96743390  0.32883948    -0.39800
N313        N  0.78779485  0.04271733  0.39084150    -0.39500
N314        N  0.70874746  0.01247092  0.48317479    -0.37200
N315        N  0.51474608  0.97862552  0.35927969    -0.38200
N316        N  0.58034612  0.99514299  0.23661724    -0.39900
C317        C  0.70224171  0.88596764  0.85175218    -0.04800
C318        C  0.67865030  0.84436143  0.83202929     0.09300
C319        C  0.70174168  0.79923372  0.83995983    -0.02200
C320        C  0.74361981  0.79519581  0.86961696    -0.00500
C321        C  0.76666134  0.83761086  0.89293228    -0.04100
C322        C  0.74714814  0.88309863  0.87868374     0.02900
C323        C  0.64503995  0.85045807  0.78666947     0.09800
C324        C  0.68550149  0.75624543  0.81389553     0.35700
C325        C  0.77913614  0.92313550  0.88621494     0.39100
C326        C  0.66848772  0.85099810  0.74119198    -0.04400
C327        C  0.64210461  0.85418970  0.69625439     0.02700
C328        C  0.58941496  0.86136955  0.69616808    -0.04100
C329        C  0.57498742  0.88352134  0.74034232    -0.00300
C330        C  0.59737060  0.87105581  0.78627120    -0.02800
C331        C  0.72074848  0.85954355  0.74271712     0.36400
C332        C  0.54326883  0.92501026  0.73485111     0.40000
C333        C  0.67351797  0.87137514  0.65712344     0.39200
C334        C  0.57374549  0.88492610  0.83156401     0.36100
C335        C  0.67791929  0.92990921  0.83932624     0.36800
C336        C  0.76325342  0.74570670  0.87330193     0.40000
N337        N  0.70212625  0.88640042  0.62953690    -0.38000
N338        N  0.76186125  0.86656187  0.74658044    -0.39600
N339        N  0.51637948  0.95633993  0.72586922    -0.37400
N340        N  0.55484902  0.89734372  0.86747490    -0.39800
N341        N  0.67660164  0.71986203  0.79423984    -0.39500
N342        N  0.77740653  0.70565037  0.87252412    -0.37200
N343        N  0.81271551  0.94767384  0.89227784    -0.38200
N344        N  0.64870162  0.95578105  0.82346269    -0.39900
C345        C  0.72362622  0.68480418  0.67001576    -0.04800
C346        C  0.69043418  0.67788732  0.63220474     0.09300
C347        C  0.69787028  0.63308702  0.60584200    -0.02200
C348        C  0.74169328  0.60404861  0.61239236    -0.00500
C349        C  0.77115728  0.60810484  0.65544636    -0.04100
C350        C  0.75300620  0.64611011  0.68755189     0.02900
C351        C  0.64870097  0.71657994  0.62526984     0.09800
C352        C  0.65858676  0.61101287  0.57898306     0.35700
C353        C  0.76083849  0.64696973  0.74003070     0.39100
C354        C  0.65794576  0.76488771  0.60657438    -0.04400
C355        C  0.62038917  0.80188797  0.60316612     0.02700
C356        C  0.57519982  0.79637527  0.62755679    -0.04100
C357        C  0.56328654  0.74507442  0.63250376    -0.00300
C358        C  0.59956599  0.70767979  0.63860976    -0.02800
C359        C  0.70711244  0.77854069  0.59481961     0.36400
C360        C  0.52412889  0.72759026  0.60216793     0.40000
C361        C  0.62790308  0.84473510  0.57259805     0.39200
C362        C  0.58294141  0.65819568  0.64950412     0.36100
C363        C  0.72599090  0.73062768  0.69460398     0.36800
C364        C  0.75154839  0.56681120  0.57732594     0.40000
N365        N  0.63521124  0.87876173  0.54807751    -0.38000
N366        N  0.74682749  0.79108521  0.58964207    -0.39600
N367        N  0.49440100  0.71161254  0.57693056    -0.37400
N368        N  0.56735527  0.61940638  0.65754547    -0.39800
N369        N  0.62789830  0.58940010  0.55981580    -0.39500
N370        N  0.75737871  0.53528778  0.54979768    -0.37200
N371        N  0.76376515  0.65153361  0.78204285    -0.38200
N372        N  0.73138003  0.76696824  0.71489839    -0.39900
C373        C  0.87658359  0.69438840  0.72422244    -0.04800
C374        C  0.87355204  0.68527137  0.77666405     0.09300
C375        C  0.86882167  0.63398079  0.78719800    -0.02200
C376        C  0.87065451  0.59848891  0.74849321    -0.00500
C377        C  0.85027010  0.60926239  0.70279048    -0.04100
C378        C  0.85727884  0.65994102  0.68945676     0.02900
C379        C  0.87154863  0.72701096  0.81777397     0.09800
C380        C  0.85832562  0.61624887  0.83594350     0.35700
C381        C  0.85029082  0.67565254  0.63883871     0.39100
C382        C  0.88627982  0.72207576  0.86884110    -0.04400
C383        C  0.87281805  0.75736394  0.90638297     0.02700
C384        C  0.84651183  0.80066969  0.89588415    -0.04100
C385        C  0.84808805  0.81200129  0.84340018    -0.00300
C386        C  0.85319429  0.77471779  0.80667742    -0.02800
C387        C  0.91693800  0.68266317  0.88596742     0.36400
C388        C  0.84577739  0.86213624  0.82495035     0.40000
C389        C  0.89483786  0.75341559  0.95386133     0.39200
C390        C  0.83927861  0.78741022  0.75694997     0.36100
C391        C  0.90966919  0.73001309  0.70322251     0.36800
C392        C  0.90602605  0.55915162  0.74992524     0.40000
N393        N  0.91519323  0.74871025  0.99048547    -0.38000
N394        N  0.93925178  0.65253776  0.90584387    -0.39600
N395        N  0.84685443  0.90054111  0.80628005    -0.37400
N396        N  0.83000446  0.79844155  0.71694182    -0.39800
N397        N  0.85028321  0.60121005  0.87497028    -0.39500
N398        N  0.93557378  0.52888750  0.75144446    -0.37200
N399        N  0.84466187  0.68831323  0.59863016    -0.38200
N400        N  0.93614466  0.75468318  0.68105731    -0.39900
C401        C  0.46162939  0.64738705  0.78563656    -0.04800
C402        C  0.48919645  0.68904924  0.77134455     0.09300
C403        C  0.53412922  0.69184185  0.79247740    -0.02200
C404        C  0.53772821  0.67851633  0.84215907    -0.00500
C405        C  0.51060067  0.63695629  0.86255107    -0.04100
C406        C  0.47517106  0.61953465  0.82850492     0.02900
C407        C  0.47354700  0.73621243  0.74501474     0.09800
C408        C  0.57119116  0.72015951  0.76631295     0.35700
C409        C  0.45266109  0.57257357  0.83485578     0.39100
C410        C  0.48562190  0.78244800  0.76707109    -0.04400
C411        C  0.49325231  0.82379523  0.73796908     0.02700
C412        C  0.50317414  0.81766851  0.68769373    -0.04100
C413        C  0.47039930  0.78376264  0.66793101    -0.00300
C414        C  0.46043673  0.73887217  0.69474177    -0.02800
C415        C  0.49944593  0.78887256  0.81783532     0.36400
C416        C  0.44827950  0.79738252  0.62221098     0.40000
C417        C  0.46465592  0.86526230  0.75397631     0.39200
C418        C  0.44626947  0.69469511  0.66946981     0.36100
C419        C  0.42648147  0.62580578  0.75328717     0.36800
C420        C  0.57327272  0.70744256  0.86636139     0.40000
N421        N  0.44312547  0.89815572  0.76979026    -0.38000
N422        N  0.51163778  0.79635469  0.85772267    -0.39600
N423        N  0.43150990  0.81166450  0.58605025    -0.37400
N424        N  0.43653555  0.65913909  0.64836468    -0.39800
N425        N  0.59692612  0.74502110  0.74353005    -0.39500
N426        N  0.60346305  0.73337936  0.87943253    -0.37200
N427        N  0.43219874  0.53570387  0.83636285    -0.38200
N428        N  0.40015328  0.60222925  0.73037992    -0.39900
C429        C  0.62368808  0.58292516  0.79867799    -0.04800
C430        C  0.65123298  0.54039064  0.80681920     0.09300
C431        C  0.64085099  0.51589104  0.85327781    -0.02200
C432        C  0.59841819  0.52950184  0.88126206    -0.00500
C433        C  0.57651221  0.57597098  0.87338036    -0.04100
C434        C  0.60550106  0.60494599  0.84078687     0.02900
C435        C  0.69654791  0.53280252  0.77462546     0.09800
C436        C  0.67501094  0.48426037  0.87776963     0.35700
C437        C  0.64399982  0.63384014  0.86242326     0.39100
C438        C  0.74202493  0.54345323  0.79435191    -0.04400
C439        C  0.78506885  0.54080866  0.76629271     0.02700
C440        C  0.78412159  0.53774553  0.71325767    -0.04100
C441        C  0.73998523  0.51768808  0.69614422    -0.00300
C442        C  0.69612190  0.52228468  0.72323040    -0.02800
C443        C  0.74570287  0.56126835  0.84370088     0.36400
C444        C  0.73918351  0.49070747  0.65087412     0.40000
C445        C  0.82464257  0.52205942  0.79586615     0.39200
C446        C  0.65276771  0.52416115  0.69383317     0.36100
C447        C  0.63524611  0.61514514  0.75859169     0.36800
C448        C  0.57972729  0.49735418  0.91850054     0.40000
N449        N  0.85404251  0.50684848  0.82228477    -0.38000
N450        N  0.75072456  0.57630179  0.88267533    -0.39600
N451        N  0.73625109  0.46686626  0.61601145    -0.37400
N452        N  0.62111074  0.52667305  0.66613274    -0.39800
N453        N  0.70033168  0.46088631  0.90226799    -0.39500
N454        N  0.56104189  0.47151020  0.94653300    -0.37200
N455        N  0.67703744  0.65598915  0.87620312    -0.38200
N456        N  0.64649836  0.64176497  0.72765018    -0.39900
C457        C  0.59321928  0.70800739  0.98217229    -0.04800
C458        C  0.64266564  0.68973581  0.97705241     0.09300
C459        C  0.64224525  0.63624282  0.97515024    -0.02200
C460        C  0.59814185  0.61049853  0.96862574    -0.00500
C461        C  0.56027296  0.63281301  0.94496251    -0.04100
C462        C  0.55301566  0.68146427  0.96175423     0.02900
C463        C  0.68872059  0.72587486  0.97494734     0.09800
C464        C  0.68277646  0.60359537  0.97217099     0.35700
C465        C  0.50686331  0.70633365  0.95753215     0.39100
C466        C  0.68251856  0.77800072  0.96837460    -0.04400
C467        C  0.72109638  0.81258323  0.97467361     0.02700
C468        C  0.77165285  0.79806501  0.97078656    -0.04100
C469        C  0.77759029  0.74845195  0.98434291    -0.00300
C470        C  0.73963470  0.71293745  0.97982023    -0.02800
C471        C  0.63920879  0.79916997  0.94652118     0.36400
C472        C  0.81286225  0.73582234  0.02101106     0.40000
C473        C  0.70636189  0.86404937  0.97361019     0.39200
C474        C  0.76105080  0.66633083  0.96813410     0.36100
C475        C  0.57990626  0.75076372  0.01061284     0.36800
C476        C  0.58422445  0.56806448  0.99680394     0.40000
N477        N  0.68937241  0.90299970  0.97221795    -0.38000
N478        N  0.60631587  0.82002596  0.93013285    -0.39600
N479        N  0.83704626  0.72005038  0.05182537    -0.37400
N480        N  0.78629683  0.63362364  0.95859700    -0.39800
N481        N  0.71084107  0.57195041  0.97047823    -0.39500
N482        N  0.56905080  0.53572488  0.02007828    -0.37200
N483        N  0.47211624  0.73021677  0.95702582    -0.38200
N484        N  0.56285551  0.78395149  0.03084564    -0.39900
C485        C  0.62221784  0.70215159  0.10617390    -0.04800
C486        C  0.67279194  0.69341788  0.09844131     0.09300
C487        C  0.68303123  0.64307428  0.08516226    -0.02200
C488        C  0.64684590  0.60456326  0.08869201    -0.00500
C489        C  0.59829329  0.61338499  0.10494659    -0.04100
C490        C  0.58653400  0.66428804  0.10066301     0.02900
C491        C  0.71351190  0.73374886  0.10741251     0.09800
C492        C  0.73099136  0.62800917  0.06962258     0.35700
C493        C  0.53817683  0.67976134  0.08863468     0.39100
C494        C  0.75526110  0.72297834  0.13585350    -0.04400
C495        C  0.78047087  0.76072469  0.15995702     0.02700
C496        C  0.78727344  0.80871389  0.13931409    -0.04100
C497        C  0.75245379  0.81801073  0.10221782    -0.00300
C498        C  0.71214225  0.78518297  0.09308606    -0.02800
C499        C  0.77034118  0.67436050  0.14963759     0.36400
C500        C  0.75667941  0.86147070  0.07301682     0.40000
C501        C  0.77930338  0.75255344  0.21164357     0.39200
C502        C  0.66950068  0.80947410  0.07477036     0.36100
C503        C  0.60430754  0.74691157  0.12758453     0.36800
C504        C  0.65736416  0.55842740  0.06504399     0.40000
N505        N  0.77170377  0.74137716  0.25164528    -0.38000
N506        N  0.78566376  0.63668589  0.16140217    -0.39600
N507        N  0.76007047  0.89553220  0.04790495    -0.37400
N508        N  0.63855624  0.83557031  0.06260719    -0.39800
N509        N  0.76898403  0.61267772  0.05964621    -0.39500
N510        N  0.66545896  0.52241190  0.04375209    -0.37200
N511        N  0.50335580  0.69889347  0.07473605    -0.38200
N512        N  0.58570358  0.78090915  0.14461078    -0.39900
C513        C  0.68153775  0.56571522  0.33774187    -0.04800
C514        C  0.69315460  0.52736510  0.30637459     0.09300
C515        C  0.73867388  0.50450486  0.31366736    -0.02200
C516        C  0.77030175  0.51821307  0.35248654    -0.00500
C517        C  0.76201279  0.56005918  0.38218677    -0.04100
C518        C  0.71685461  0.58631222  0.36895701     0.02900
C519        C  0.66292382  0.52198296  0.25962831     0.09800
C520        C  0.75785626  0.47214845  0.27701075     0.35700
C521        C  0.70865308  0.63898050  0.37489007     0.39100
C522        C  0.68275357  0.53769751  0.21476567    -0.04400
C523        C  0.65475317  0.53632112  0.17172164     0.02700
C524        C  0.60211823  0.53895997  0.17319446    -0.04100
C525        C  0.58368674  0.51650181  0.21670722    -0.00300
C526        C  0.61251497  0.50977087  0.25955645    -0.02800
C527        C  0.73460666  0.54705615  0.20969793     0.36400
C528        C  0.53718201  0.49304460  0.21581120     0.40000
C529        C  0.68035606  0.50152418  0.14119558     0.39200
C530        C  0.58685711  0.49630380  0.30408595     0.36100
C531        C  0.63678877  0.59134274  0.32796408     0.36800
C532        C  0.81369011  0.49009180  0.35729376     0.40000
N533        N  0.70652444  0.47621938  0.11959701    -0.38000
N534        N  0.77622680  0.55020851  0.20466672    -0.39600
N535        N  0.50083058  0.47201591  0.21600698    -0.37400
N536        N  0.56182964  0.48798744  0.33730796    -0.39800
N537        N  0.77841080  0.45212431  0.24615030    -0.39500
N538        N  0.84646963  0.46399428  0.35769834    -0.37200
N539        N  0.70078761  0.68087915  0.37466681    -0.38200
N540        N  0.60103481  0.60871310  0.31490537    -0.39900
C541        C  0.82891224  0.69882060  0.34053176    -0.04800
C542        C  0.86790902  0.69557859  0.30565560     0.09300
C543        C  0.89032445  0.64687890  0.30774437    -0.02200
C544        C  0.87566267  0.60994792  0.34488131    -0.00500
C545        C  0.83308283  0.61759763  0.37514208    -0.04100
C546        C  0.80584050  0.65493307  0.35202808     0.02900
C547        C  0.87767813  0.73863869  0.26720043     0.09800
C548        C  0.92015166  0.62937071  0.26851757     0.35700
C549        C  0.78154556  0.63967088  0.30685860     0.39100
C550        C  0.87569654  0.78906253  0.28242756    -0.04400
C551        C  0.87050392  0.82897149  0.24804122     0.02700
C552        C  0.86157166  0.82056095  0.19734729    -0.04100
C553        C  0.88134649  0.77529715  0.18195635    -0.00300
C554        C  0.88427175  0.73347917  0.21456123    -0.02800
C555        C  0.87690692  0.80232894  0.33383828     0.36400
C556        C  0.89619966  0.77179436  0.13148330     0.40000
C557        C  0.87925294  0.87869493  0.26563832     0.39200
C558        C  0.88516059  0.68694261  0.18952022     0.36100
C559        C  0.79713600  0.73999076  0.34693234     0.36800
C560        C  0.89985009  0.56307156  0.34409212     0.40000
N561        N  0.88880664  0.91641307  0.28256180    -0.38000
N562        N  0.87486900  0.81724175  0.37357074    -0.39600
N563        N  0.91024788  0.77135534  0.09155213    -0.37400
N564        N  0.88598861  0.65246906  0.16467313    -0.39800
N565        N  0.93951603  0.61014965  0.23622073    -0.39500
N566        N  0.92125584  0.52657917  0.34157429    -0.37200
N567        N  0.76198087  0.63021024  0.27075098    -0.38200
N568        N  0.76818854  0.77043719  0.35052654    -0.39900
C569        C  0.58388642  0.68674644  0.24402775    -0.04800
C570        C  0.53862804  0.69253485  0.26718869     0.09300
C571        C  0.50730318  0.65162472  0.25873684    -0.02200
C572        C  0.51324860  0.61842327  0.21774303    -0.00500
C573        C  0.55534686  0.61745929  0.18769126    -0.04100
C574        C  0.59254171  0.64938991  0.20768368     0.02900
C575        C  0.53129694  0.73150245  0.30914335     0.09800
C576        C  0.47448148  0.63543778  0.29672218     0.35700
C577        C  0.64295705  0.64155425  0.19714234     0.39100
C578        C  0.51271371  0.78081044  0.30244714    -0.04400
C579        C  0.50446968  0.81259744  0.34358869     0.02700
C580        C  0.52883323  0.80611835  0.38703734    -0.04100
C581        C  0.53680604  0.75475654  0.39717427    -0.00300
C582        C  0.54020832  0.71883430  0.35887915    -0.02800
C583        C  0.50573259  0.80334776  0.25534699     0.36400
C584        C  0.51842023  0.73519408  0.44284794     0.40000
C585        C  0.47212383  0.85378966  0.34409234     0.39200
C586        C  0.54146707  0.66746649  0.37303314     0.36100
C587        C  0.62629047  0.70656367  0.26790367     0.36800
C588        C  0.47827468  0.58021858  0.21459611     0.40000
N589        N  0.44976305  0.88953558  0.34834656    -0.38000
N590        N  0.49966313  0.82708329  0.22051537    -0.39600
N591        N  0.50142223  0.71606941  0.47677187    -0.37400
N592        N  0.53689737  0.62714369  0.38633071    -0.39800
N593        N  0.44981652  0.61563907  0.32490804    -0.39500
N594        N  0.44758251  0.55218279  0.22025362    -0.37200
N595        N  0.68459568  0.64018880  0.19369833    -0.38200
N596        N  0.66432977  0.71372561  0.28401291    -0.39900
C597        C  0.71814279  0.84979398  0.25171613    -0.04800
C598        C  0.69645495  0.89540355  0.25483661     0.09300
C599        C  0.70662852  0.92510526  0.21310606    -0.02200
C600        C  0.75056794  0.91652251  0.18552002    -0.00500
C601        C  0.78488553  0.87873533  0.20003702    -0.04100
C602        C  0.76737818  0.85229891  0.24301846     0.02900
C603        C  0.65593022  0.90099715  0.29164095     0.09800
C604        C  0.66734206  0.94969826  0.18810718     0.35700
C605        C  0.78531925  0.86233249  0.29133043     0.39100
C606        C  0.66339334  0.91352899  0.34208667    -0.04400
C607        C  0.62507161  0.91062297  0.37711149     0.02700
C608        C  0.58146985  0.88638566  0.36605490    -0.04100
C609        C  0.57164157  0.88576431  0.31312482    -0.00300
C610        C  0.60939129  0.88645504  0.27823606    -0.02800
C611        C  0.71015146  0.92411501  0.36235025     0.36400
C612        C  0.53052720  0.91030453  0.29031849     0.40000
C613        C  0.63256083  0.92632611  0.42713325     0.39200
C614        C  0.59864696  0.87663606  0.22691614     0.36100
C615        C  0.69140613  0.81334781  0.22527242     0.36800
C616        C  0.75559805  0.94600829  0.14231890     0.40000
N617        N  0.63732352  0.93772198  0.46752870    -0.38000
N618        N  0.74336767  0.93227251  0.38676701    -0.39600
N619        N  0.49986911  0.92974626  0.26843739    -0.37400
N620        N  0.58938121  0.87147816  0.18592275    -0.39800
N621        N  0.63733780  0.96562949  0.16300542    -0.39500
N622        N  0.75401819  0.97111528  0.10806541    -0.37200
N623        N  0.79698717  0.86881619  0.33142771    -0.38200
N624        N  0.67025904  0.78425427  0.20333834    -0.39900
C625        C  0.62754646  0.75394609  0.49326604    -0.04800
C626        C  0.67559406  0.74903083  0.47234297     0.09300
C627        C  0.68491326  0.78678522  0.43748828    -0.02200
C628        C  0.64620600  0.81056071  0.41356874    -0.00500
C629        C  0.60233823  0.82348352  0.43819394    -0.04100
C630        C  0.59594358  0.79533720  0.48176972     0.02900
C631        C  0.71143440  0.70311261  0.47854518     0.09800
C632        C  0.72993756  0.81317383  0.43523897     0.35700
C633        C  0.55279322  0.80416895  0.51051475     0.39100
C634        C  0.69524616  0.65301956  0.47616460    -0.04400
C635        C  0.72802355  0.61180212  0.47136572     0.02700
C636        C  0.77756900  0.61882509  0.45557354    -0.04100
C637        C  0.79520259  0.66636599  0.46810586    -0.00300
C638        C  0.76344769  0.70696889  0.48048422    -0.02800
C639        C  0.64576199  0.64185863  0.46312095     0.36400
C640        C  0.84656757  0.67302687  0.47519568     0.40000
C641        C  0.70541913  0.56336921  0.47133327     0.39200
C642        C  0.78668799  0.75126436  0.49772095     0.36100
C643        C  0.60629276  0.71461966  0.52077443     0.36800
C644        C  0.64563651  0.80350330  0.36200644     0.40000
N645        N  0.68268598  0.52756656  0.47226354    -0.38000
N646        N  0.60754477  0.62839737  0.45255546    -0.39600
N647        N  0.88615368  0.68246945  0.48518870    -0.37400
N648        N  0.80911610  0.78474355  0.51084905    -0.39800
N649        N  0.76464035  0.83707953  0.43309658    -0.39500
N650        N  0.64285192  0.79808216  0.32035899    -0.37200
N651        N  0.51777776  0.81221014  0.53241265    -0.38200
N652        N  0.58669229  0.68123087  0.53813647    -0.39900
C653        C  0.02568807  0.71984772  0.85675674    -0.04800
C654        C  0.00166401  0.73495655  0.81364893     0.09300
C655        C  0.97851392  0.78267747  0.81752356    -0.02200
C656        C  0.98071759  0.81128745  0.86232500    -0.00500
C657        C  0.01478102  0.80066061  0.89864051    -0.04100
C658        C  0.02574390  0.74882584  0.89976961     0.02900
C659        C  0.00747836  0.70390429  0.76535369     0.09800
C660        C  0.95917436  0.80737630  0.77509694     0.35700
C661        C  0.01713459  0.71917166  0.94316284     0.39100
C662        C  0.98609214  0.65676919  0.75562669    -0.04400
C663        C  0.99632099  0.62962888  0.71094645     0.02700
C664        C  0.04016187  0.63479677  0.68603706    -0.04100
C665        C  0.06425032  0.68085395  0.69899504    -0.00300
C666        C  0.04559153  0.71558531  0.73372768    -0.02800
C667        C  0.97351257  0.62696534  0.79714044     0.36400
C668        C  0.11179257  0.69378572  0.68279384     0.40000
C669        C  0.95892171  0.61821067  0.67698019     0.39200
C670        C  0.07395975  0.75887360  0.74427191     0.36100
C671        C  0.05274553  0.67466590  0.85959896     0.36800
C672        C  0.94861211  0.85180531  0.87329127     0.40000
N673        N  0.93370722  0.61028590  0.64411429    -0.38000
N674        N  0.96592668  0.59979118  0.82910665    -0.39600
N675        N  0.15066830  0.70822943  0.67764774    -0.37400
N676        N  0.10194271  0.78963800  0.75045533    -0.39800
N677        N  0.94481041  0.83153384  0.74319531    -0.39500
N678        N  0.92577061  0.88571554  0.88471936    -0.37200
N679        N  0.00959802  0.69213486  0.97533646    -0.38200
N680        N  0.07551247  0.64026672  0.86877128    -0.39900
C681        C  0.18014320  0.79083407  0.60806832    -0.04800
C682        C  0.19508798  0.74653596  0.58374223     0.09300
C683        C  0.24515000  0.75000813  0.56676015    -0.02200
C684        C  0.27650805  0.79107321  0.57761810    -0.00500
C685        C  0.26417470  0.82658717  0.61170966    -0.04100
C686        C  0.21193653  0.83160658  0.61412718     0.02900
C687        C  0.15873420  0.70077623  0.57714861     0.09800
C688        C  0.27040495  0.71138780  0.54311634     0.35700
C689        C  0.18855683  0.87840951  0.60489276     0.39100
C690        C  0.10622002  0.70593522  0.57257358    -0.04400
C691        C  0.07300809  0.66773539  0.58809042     0.02700
C692        C  0.08998698  0.62193738  0.60622796    -0.04100
C693        C  0.13832130  0.61182619  0.59278704    -0.00300
C694        C  0.17296004  0.64998694  0.58326014    -0.02800
C695        C  0.08281175  0.75029587  0.55513734     0.36400
C696        C  0.15365046  0.56154330  0.58793861     0.40000
C697        C  0.02136679  0.67835390  0.59067687     0.39200
C698        C  0.22254705  0.63320348  0.58559997     0.36100
C699        C  0.13238453  0.79756165  0.62923253     0.36800
C700        C  0.31858729  0.80199010  0.54799647     0.40000
N701        N  0.98074814  0.68911946  0.59232036    -0.38000
N702        N  0.05861175  0.78349369  0.54435057    -0.39600
N703        N  0.17077648  0.52355171  0.58068668    -0.37400
N704        N  0.25966208  0.61348963  0.58925296    -0.39800
N705        N  0.29828336  0.68261944  0.53011614    -0.39500
N706        N  0.35176439  0.81203995  0.52411357    -0.37200
N707        N  0.16682845  0.91334309  0.59417077    -0.38200
N708        N  0.09422592  0.80486046  0.64543037    -0.39900
C709        C  0.19794339  0.92217649  0.72114251    -0.04800
C710        C  0.18771890  0.88995425  0.76221851     0.09300
C711        C  0.21533379  0.84676151  0.76266585    -0.02200
C712        C  0.24296310  0.83359252  0.72193969    -0.00500
C713        C  0.26529534  0.86980790  0.69074008    -0.04100
C714        C  0.24120090  0.91564376  0.69135155     0.02900
C715        C  0.14672450  0.89468869  0.80137025     0.09800
C716        C  0.21668132  0.81422854  0.80397395     0.35700
C717        C  0.25129095  0.94816633  0.65080985     0.39100
C718        C  0.09725149  0.88659308  0.79070362    -0.04400
C719        C  0.06140627  0.88092537  0.82895187     0.02700
C720        C  0.07414275  0.87772556  0.88064071    -0.04100
C721        C  0.12049859  0.89921196  0.88904160    -0.00300
C722        C  0.15713314  0.90209692  0.85177868    -0.02800
C723        C  0.08130126  0.88755456  0.73984053     0.36400
C724        C  0.13030259  0.92289790  0.93490644     0.40000
C725        C  0.01509526  0.90073483  0.81398642     0.39200
C726        C  0.20644339  0.90872694  0.86749824     0.36100
C727        C  0.16048655  0.95191364  0.69948730     0.36800
C728        C  0.24080918  0.78271904  0.70741045     0.40000
N729        N  0.98058221  0.91937790  0.79823134    -0.38000
N730        N  0.06628207  0.88884893  0.70025276    -0.39600
N731        N  0.13987004  0.94556647  0.96921456    -0.37400
N732        N  0.24507223  0.91119426  0.88348617    -0.39800
N733        N  0.22241565  0.78790180  0.83663323    -0.39500
N734        N  0.23935012  0.74367267  0.69096887    -0.37200
N735        N  0.25731460  0.97085952  0.61534759    -0.38200
N736        N  0.13265533  0.97378241  0.67626428    -0.39900
C737        C  0.13716141  0.58316259  0.76658603    -0.04800
C738        C  0.16345358  0.53882074  0.76863774     0.09300
C739        C  0.15363306  0.50855615  0.72663482    -0.02200
C740        C  0.10986285  0.52074682  0.69928934    -0.00500
C741        C  0.10440384  0.57060158  0.68525918    -0.04100
C742        C  0.13301028  0.60093556  0.71757541     0.02900
C743        C  0.20243179  0.53161855  0.80855462     0.09800
C744        C  0.19408958  0.50499573  0.69328081     0.35700
C745        C  0.18024598  0.61487524  0.69919266     0.31900
C746        C  0.18879621  0.52509546  0.85878442    -0.04400
C747        C  0.22368864  0.52959182  0.89781151     0.02700
C748        C  0.27214148  0.54570302  0.88752808    -0.04100
C749        C  0.28665843  0.53481994  0.83907034    -0.00300
C750        C  0.25327077  0.53532912  0.79981619    -0.02800
C751        C  0.13822871  0.51821176  0.87196312     0.36400
C752        C  0.32841821  0.50410608  0.83226016     0.40000
C753        C  0.20761609  0.52114450  0.94805768     0.39200
C754        C  0.27488050  0.53996572  0.75187598     0.36100
C755        C  0.09151028  0.57641810  0.79095271     0.36800
C756        C  0.06467013  0.49806958  0.71216452     0.40000
N757        N  0.19267845  0.51366881  0.98716187    -0.38000
N758        N  0.09869681  0.51180019  0.88506085    -0.39600
N759        N  0.35806522  0.47505932  0.82470756    -0.37400
N760        N  0.29729093  0.54296330  0.71601959    -0.39800
N761        N  0.22407323  0.50409830  0.66342195    -0.39500
N762        N  0.02575244  0.48530836  0.72125675    -0.37200
N763        N  0.21952542  0.62474826  0.68815312    -0.38200
N764        N  0.05501533  0.56371871  0.80757271    -0.39900
C765        C  0.25113568  0.69727809  0.99956445    -0.04800
C766        C  0.19950603  0.69695787  0.99099165     0.09300
C767        C  0.18307098  0.65128094  0.97361416    -0.02200
C768        C  0.21429881  0.62466616  0.94282946    -0.00500
C769        C  0.26574769  0.61772161  0.95386527    -0.04100
C770        C  0.28183426  0.65563727  0.98678763     0.02900
C771        C  0.16496169  0.74265680  0.98705998     0.09800
C772        C  0.13245019  0.63696849  0.97387201     0.35700
C773        C  0.33098366  0.65684821  0.00436347     0.39100
C774        C  0.17342348  0.77963252  0.95146249    -0.04400
C775        C  0.13408678  0.80056964  0.92594523     0.02700
C776        C  0.09015409  0.81251405  0.95065995    -0.04100
C777        C  0.08273985  0.78251201  0.99312762    -0.00300
C778        C  0.11697562  0.74470314  0.00740666    -0.02800
C779        C  0.21756957  0.80761166  0.95117608     0.36400
C780        C  0.03705363  0.78516183  0.01837405     0.40000
C781        C  0.12912568  0.78033194  0.87789514     0.39200
C782        C  0.10192342  0.71009205  0.04451996     0.36100
C783        C  0.27658550  0.74044172  0.01604991     0.36800
C784        C  0.19484821  0.62667553  0.89352193     0.40000
N785        N  0.12581996  0.75963807  0.84119319    -0.38000
N786        N  0.25251072  0.83121056  0.95113117    -0.39600
N787        N  0.99881062  0.78189099  0.03520179    -0.37400
N788        N  0.08693293  0.68320985  0.07375937    -0.39800
N789        N  0.09287907  0.62272511  0.97422732    -0.39500
N790        N  0.17783429  0.63239062  0.85520451    -0.37200
N791        N  0.36903304  0.66095049  0.02156141    -0.38200
N792        N  0.30349417  0.77129147  0.02653164    -0.39900
C793        C  0.37314491  0.68447708  0.83595264    -0.04800
C794        C  0.33774153  0.69271365  0.79790966     0.09300
C795        C  0.29283316  0.66871626  0.80665292    -0.02200
C796        C  0.28472159  0.65304663  0.85480305    -0.00500
C797        C  0.32014549  0.62464520  0.87915282    -0.04100
C798        C  0.36651415  0.64574299  0.87203877     0.02900
C799        C  0.34204218  0.73320693  0.75810960     0.09800
C800        C  0.24879823  0.68231725  0.78188955     0.35700
C801        C  0.40022490  0.64193032  0.91112648     0.39100
C802        C  0.33981488  0.72237123  0.70756787    -0.04400
C803        C  0.34143668  0.75990114  0.67038796     0.02700
C804        C  0.33663782  0.81162278  0.68160650    -0.04100
C805        C  0.34622010  0.82115835  0.73302228    -0.00300
C806        C  0.34464555  0.78348013  0.77008048    -0.02800
C807        C  0.33024031  0.67254810  0.69196893     0.36400
C808        C  0.34443648  0.86993161  0.75290535     0.40000
C809        C  0.35657113  0.74203777  0.62312771     0.39200
C810        C  0.33622366  0.79812308  0.82079723     0.36100
C811        C  0.40359992  0.72418679  0.85107392     0.36800
C812        C  0.27325870  0.69684457  0.88258212     0.40000
N813        N  0.37172646  0.72309736  0.58824251    -0.38000
N814        N  0.32213661  0.63423724  0.67575510    -0.39600
N815        N  0.33906099  0.90365365  0.77779161    -0.37400
N816        N  0.32951809  0.81209745  0.86035003    -0.39800
N817        N  0.21005351  0.69250567  0.76926723    -0.39500
N818        N  0.26942135  0.73321277  0.90367631    -0.37200
N819        N  0.42670093  0.64205217  0.94350779    -0.38200
N820        N  0.42210979  0.75659928  0.87063669    -0.39900
C821        C  0.67755203  0.00163306  0.73398838    -0.04800
C822        C  0.68636307  0.03537873  0.77382372     0.09300
C823        C  0.65490990  0.07613024  0.77469579    -0.02200
C824        C  0.62730215  0.08737754  0.73331123    -0.00500
C825        C  0.60819362  0.04958230  0.70174893    -0.04100
C826        C  0.63389084  0.00500100  0.70451895     0.02900
C827        C  0.72664183  0.03007714  0.81376496     0.09800
C828        C  0.64986542  0.10846877  0.81635528     0.35700
C829        C  0.62296205  0.97062242  0.66657295     0.39100
C830        C  0.77738779  0.02971996  0.80242270    -0.04400
C831        C  0.81287591  0.03650404  0.84028943     0.02700
C832        C  0.79834622  0.05128251  0.88882555    -0.04100
C833        C  0.75263344  0.03203553  0.90106958    -0.00300
C834        C  0.71532340  0.02963104  0.86533879    -0.02800
C835        C  0.79420944  0.03459668  0.75230777     0.36400
C836        C  0.74628550  0.00725415  0.94783670     0.40000
C837        C  0.86329339  0.02793858  0.82809686     0.39200
C838        C  0.66565233  0.02826282  0.88346291     0.36100
C839        C  0.71649465  0.97166595  0.71598398     0.36800
C840        C  0.61588817  0.13846912  0.72554619     0.40000
N841        N  0.90197058  0.01782730  0.81489971    -0.38000
N842        N  0.80961392  0.03936070  0.71298904    -0.39600
N843        N  0.74144993  0.98671064  0.98483138    -0.37400
N844        N  0.62607536  0.02676801  0.89795004    -0.39800
N845        N  0.64517666  0.13555274  0.84858251    -0.39500
N846        N  0.60457997  0.17871621  0.71888003    -0.37200
N847        N  0.61324280  0.94827482  0.63211398    -0.38200
N848        N  0.74907052  0.95227114  0.69742408    -0.39900
C849        C  0.72858398  0.24045581  0.67792413    -0.04800
C850        C  0.72299735  0.22243651  0.63040717     0.09300
C851        C  0.75897525  0.24026861  0.59631054    -0.02200
C852        C  0.78884871  0.28305558  0.60606821    -0.00500
C853        C  0.78976038  0.30541239  0.65279777    -0.04100
C854        C  0.76035737  0.27979334  0.68904430     0.02900
C855        C  0.68441052  0.18075752  0.62175188     0.09800
C856        C  0.77656322  0.20833089  0.55871174     0.35700
C857        C  0.75604306  0.29698624  0.73859494     0.39100
C858        C  0.63425828  0.19008685  0.61339881    -0.04400
C859        C  0.59767999  0.15154020  0.61265204     0.02700
C860        C  0.60712213  0.10135988  0.62760788    -0.04100
C861        C  0.66013642  0.09251704  0.62618741    -0.00300
C862        C  0.69625562  0.13090737  0.62757512    -0.02800
C863        C  0.61840153  0.24035651  0.60757602     0.36400
C864        C  0.68103885  0.04442715  0.61767572     0.40000
C865        C  0.55569181  0.16277210  0.58340254     0.39200
C866        C  0.74731333  0.11813328  0.63112448     0.36100
C867        C  0.70575295  0.21539311  0.71854836     0.36800
C868        C  0.82121704  0.30166152  0.56895589     0.40000
N869        N  0.52423064  0.17505932  0.55810676    -0.38000
N870        N  0.60280413  0.27974878  0.60456028    -0.39600
N871        N  0.70198052  0.00870687  0.60808892    -0.37400
N872        N  0.78770651  0.10649571  0.63063986    -0.39800
N873        N  0.79683016  0.18389392  0.53083763    -0.39500
N874        N  0.84788955  0.31676855  0.53975757    -0.37200
N875        N  0.74878795  0.31019034  0.77795303    -0.38200
N876        N  0.69168931  0.19889931  0.75493287    -0.39900
C877        C  0.89564280  0.24974342  0.72565463    -0.04800
C878        C  0.88129230  0.24920922  0.77625805     0.09300
C879        C  0.85465133  0.28986315  0.79242059    -0.02200
C880        C  0.85056805  0.33272778  0.76327737    -0.00500
C881        C  0.85527018  0.33066107  0.70988346    -0.04100
C882        C  0.88369867  0.28996591  0.69400524     0.02900
C883        C  0.88389377  0.20375404  0.80996097     0.09800
C884        C  0.83304289  0.28869656  0.84114431     0.35700
C885        C  0.90385263  0.29106620  0.64502236     0.39100
C886        C  0.90095791  0.20325265  0.85995974    -0.04400
C887        C  0.89067468  0.16272537  0.89269685     0.02700
C888        C  0.85312136  0.12817840  0.88220124    -0.04100
C889        C  0.83144970  0.13823580  0.83508348    -0.00300
C890        C  0.85381288  0.16498446  0.79727412    -0.02800
C891        C  0.91876649  0.24727937  0.88323234     0.36400
C892        C  0.78111558  0.13378341  0.82609324     0.40000
C893        C  0.91727211  0.16097231  0.93796014     0.39200
C894        C  0.83344626  0.16270643  0.74803640     0.36100
C895        C  0.91860126  0.20769288  0.70286898     0.36800
C896        C  0.86907662  0.37273383  0.79253899     0.40000
N897        N  0.94086887  0.16165261  0.97293015    -0.38000
N898        N  0.92738270  0.28119812  0.90725423    -0.39600
N899        N  0.74259974  0.13295635  0.81060807    -0.37400
N900        N  0.81639421  0.16233187  0.70940374    -0.39800
N901        N  0.81851492  0.28434208  0.88084051    -0.39500
N902        N  0.88534311  0.40175104  0.81878607    -0.37200
N903        N  0.92194240  0.29258427  0.60676042    -0.38200
N904        N  0.93459712  0.17553260  0.68031468    -0.39900
C905        C  0.51913536  0.13077919  0.78079564    -0.04800
C906        C  0.50561303  0.17739733  0.76114757     0.09300
C907        C  0.49543013  0.17660135  0.70881086    -0.02200
C908        C  0.50281840  0.13286652  0.68001388    -0.00500
C909        C  0.53007775  0.09376537  0.69729580    -0.04100
C910        C  0.52661866  0.08866165  0.75033357     0.02900
C911        C  0.50542623  0.22472710  0.79476582     0.09800
C912        C  0.48634487  0.22072823  0.68092180     0.35700
C913        C  0.53843194  0.04334382  0.77642273     0.39100
C914        C  0.53020549  0.26833046  0.78090745    -0.04400
C915        C  0.52904165  0.31127400  0.81017921     0.02700
C916        C  0.51852589  0.30953624  0.86192266    -0.04100
C917        C  0.48651904  0.27134963  0.87263639    -0.00300
C918        C  0.48183729  0.22834336  0.84216263    -0.02800
C919        C  0.56087160  0.27104591  0.73829571     0.36400
C920        C  0.45664881  0.27892255  0.91457083     0.40000
C921        C  0.52159300  0.35554201  0.78185205     0.39200
C922        C  0.45940058  0.18651967  0.86507875     0.36100
C923        C  0.53403225  0.12617385  0.83136400     0.36800
C924        C  0.47691890  0.12132497  0.63590507     0.40000
N925        N  0.51370915  0.38854131  0.75600740    -0.38000
N926        N  0.58688797  0.27628181  0.70542914    -0.39600
N927        N  0.43591534  0.28633678  0.95037390    -0.37400
N928        N  0.44736892  0.15238022  0.88754840    -0.39800
N929        N  0.48226828  0.25457437  0.65531832    -0.39500
N930        N  0.45945209  0.10546615  0.60074440    -0.37200
N931        N  0.54912385  0.01107288  0.80210949    -0.38200
N932        N  0.54498140  0.11940878  0.87173715    -0.39900
C933        C  0.75999786  0.21220538  0.98739255    -0.04800
C934        C  0.71527278  0.21557192  0.95987565     0.09300
C935        C  0.71667933  0.18456156  0.91970135    -0.02200
C936        C  0.73818562  0.13766891  0.92511526    -0.00500
C937        C  0.78603163  0.13374812  0.94354803    -0.04100
C938        C  0.79567140  0.17317157  0.97769786     0.02900
C939        C  0.66849474  0.24908318  0.96396501     0.09800
C940        C  0.72345833  0.21155045  0.87526362     0.35700
C941        C  0.83654709  0.17009167  0.01041399     0.39100
C942        C  0.66699381  0.30083960  0.97188274    -0.04400
C943        C  0.62330381  0.32960049  0.96327853     0.02700
C944        C  0.57921370  0.30940834  0.94284626    -0.04100
C945        C  0.57870322  0.25670681  0.94720881    -0.00300
C946        C  0.62203989  0.22813105  0.95408991    -0.02800
C947        C  0.71072116  0.32709705  0.98460568     0.36400
C948        C  0.53469101  0.22952823  0.95641970     0.40000
C949        C  0.62747866  0.38193813  0.96977765     0.39200
C950        C  0.61596729  0.17534206  0.95176539     0.36100
C951        C  0.77448396  0.24929722  0.02164249     0.36800
C952        C  0.70574046  0.10592216  0.95077068     0.40000
N953        N  0.63641688  0.42289330  0.97612310    -0.38000
N954        N  0.74394944  0.35134795  0.99399864    -0.39600
N955        N  0.50321255  0.20315202  0.96680606    -0.37400
N956        N  0.60448601  0.13452721  0.94986841    -0.39800
N957        N  0.73022252  0.23511751  0.84065000    -0.39500
N958        N  0.68127250  0.07805589  0.97117946    -0.37200
N959        N  0.86616785  0.16973798  0.04034834    -0.38200
N960        N  0.79312434  0.27720507  0.04723074    -0.39900
C961        C  0.61473556  0.42397446  0.80424577    -0.04800
C962        C  0.66197131  0.40198425  0.80328014     0.09300
C963        C  0.66804569  0.36360049  0.83721049    -0.02200
C964        C  0.62789199  0.34094569  0.85756350    -0.00500
C965        C  0.58622681  0.36926113  0.87179254    -0.04100
C966        C  0.58088458  0.41290415  0.84306534     0.02900
C967        C  0.69962954  0.40830924  0.76199818     0.09800
C968        C  0.71256649  0.35431217  0.86214117     0.35700
C969        C  0.53649681  0.44088691  0.84299695     0.39100
C970        C  0.74942949  0.42132571  0.76980262    -0.04400
C971        C  0.78431922  0.41669720  0.73121407     0.02700
C972        C  0.77559909  0.38742008  0.69096513    -0.04100
C973        C  0.72481078  0.38224652  0.67925586    -0.00300
C974        C  0.68776361  0.39320404  0.71395844    -0.02800
C975        C  0.76739687  0.43321804  0.81776776     0.36400
C976        C  0.70845057  0.36203936  0.63357020     0.40000
C977        C  0.83042064  0.44058021  0.73061254     0.39200
C978        C  0.63771638  0.38422349  0.70021307     0.36100
C979        C  0.59695529  0.45623694  0.76610697     0.36800
C980        C  0.62648437  0.28809975  0.85096431     0.40000
N981        N  0.86920510  0.45629355  0.72852827    -0.38000
N982        N  0.78450313  0.44077332  0.85574352    -0.39600
N983        N  0.69078149  0.34350754  0.60021823    -0.37400
N984        N  0.59845825  0.37816175  0.68663373    -0.39800
N985        N  0.74700280  0.34832540  0.88524874    -0.39500
N986        N  0.62397652  0.24632815  0.84316696    -0.37200
N987        N  0.50326080  0.46612066  0.83755148    -0.38200
N988        N  0.57402794  0.47998681  0.73957166    -0.39900
C989        C  0.18318912  0.65136943  0.45494737    -0.04800
C990        C  0.16784083  0.70145734  0.44978066     0.09300
C991        C  0.11645364  0.70724370  0.45339288    -0.02200
C992        C  0.08436074  0.66590361  0.46073528    -0.00500
C993        C  0.09822225  0.61620324  0.44920186    -0.04100
C994        C  0.14994128  0.61048845  0.45530587     0.02900
C995        C  0.20631894  0.74421443  0.44191241     0.09800
C996        C  0.09341516  0.75410750  0.44446533     0.35700
C997        C  0.17180630  0.56579195  0.47323901     0.39100
C998        C  0.24847268  0.73504105  0.41381794    -0.04400
C999        C  0.29212077  0.76169561  0.41973807     0.02700
C1000       C  0.29146806  0.81202961  0.43270602    -0.04100
C1001       C  0.24864851  0.82398614  0.46080404    -0.00300
C1002       C  0.20721149  0.79157351  0.46485990    -0.02800
C1003       C  0.24712456  0.70036875  0.37485371     0.36400
C1004       C  0.24884880  0.86540003  0.49356689     0.40000
C1005       C  0.33040132  0.73210288  0.43989203     0.39200
C1006       C  0.16595972  0.81174195  0.49034843     0.36100
C1007       C  0.23435096  0.63904797  0.45850404     0.36800
C1008       C  0.03509644  0.67641008  0.47553712     0.40000
N1009       N  0.36027331  0.70830613  0.45803392    -0.38000
N1010       N  0.24782777  0.67416916  0.34182580    -0.39600
N1011       N  0.24709194  0.89706343  0.52172579    -0.37400
N1012       N  0.13618199  0.83465508  0.50964301    -0.39800
N1013       N  0.07167114  0.78985599  0.43731953    -0.39500
N1014       N  0.99661891  0.68853497  0.48746896    -0.37200
N1015       N  0.19657474  0.53389708  0.48635963    -0.38200
N1016       N  0.27384017  0.62462484  0.45949182    -0.39900
C1017       C  0.00848578  0.72573600  0.22622729    -0.04800
C1018       C  0.00214339  0.74814982  0.27303180     0.09300
C1019       C  0.98721514  0.79913618  0.26958354    -0.02200
C1020       C  0.98557274  0.82416126  0.22187998    -0.00500
C1021       C  0.00988018  0.80628390  0.18171267    -0.04100
C1022       C  0.00829657  0.75363546  0.18120255     0.02900
C1023       C  0.01534745  0.71785187  0.32124917     0.09800
C1024       C  0.97959197  0.82703022  0.31363123     0.35700
C1025       C  0.00294369  0.72732869  0.13575759     0.39100
C1026       C  0.06372905  0.70364071  0.33009546    -0.04400
C1027       C  0.07534404  0.65790695  0.35152686     0.02700
C1028       C  0.04096411  0.62768030  0.37822028    -0.04100
C1029       C  0.99333992  0.64693581  0.37785775    -0.00300
C1030       C  0.98162756  0.69301052  0.35295926    -0.02800
C1031       C  0.10098320  0.74038903  0.33706666     0.36400
C1032       C  0.96005268  0.62579651  0.41263954     0.40000
C1033       C  0.12592528  0.64502530  0.34895762     0.39200
C1034       C  0.95011621  0.72419777  0.38089066     0.36100
C1035       C  0.02235062  0.67500662  0.22346183     0.36800
C1036       C  0.96057656  0.86826692  0.20732703     0.40000
N1037       N  0.16563485  0.63254816  0.34571691    -0.38000
N1038       N  0.13334050  0.76640553  0.34506714    -0.39600
N1039       N  0.93570998  0.60908652  0.44296114    -0.37400
N1040       N  0.92895276  0.74640466  0.40998465    -0.39800
N1041       N  0.97363205  0.84998989  0.34884458    -0.39500
N1042       N  0.94436946  0.90366581  0.19003359    -0.37200
N1043       N  0.99448048  0.70306283  0.10206445    -0.38200
N1044       N  0.03420692  0.63461860  0.21915136    -0.39900
C1045       C  0.22255357  0.84469638  0.29443436    -0.04800
C1046       C  0.19056566  0.88309874  0.30326623     0.09300
C1047       C  0.19769319  0.90759302  0.34925721    -0.02200
C1048       C  0.24231831  0.90335141  0.37601282    -0.00500
C1049       C  0.27842581  0.86805912  0.36415942    -0.04100
C1050       C  0.26254165  0.83516425  0.32546136     0.02900
C1051       C  0.14978594  0.89215017  0.26535682     0.09800
C1052       C  0.15850459  0.92977620  0.37611190     0.35700
C1053       C  0.28371176  0.78816685  0.31581803     0.39100
C1054       C  0.10052682  0.88824221  0.27850716    -0.04400
C1055       C  0.06363096  0.88958547  0.24247965     0.02700
C1056       C  0.07407861  0.88149788  0.19110347    -0.04100
C1057       C  0.12009313  0.89958031  0.17925798    -0.00300
C1058       C  0.15864773  0.89920963  0.21355345    -0.02800
C1059       C  0.08610228  0.87435246  0.32763704     0.36400
C1060       C  0.12584270  0.92462415  0.13338971     0.40000
C1061       C  0.02464604  0.92136793  0.25803177     0.39200
C1062       C  0.20608183  0.90082530  0.19115165     0.36100
C1063       C  0.21061502  0.80919447  0.25695415     0.36800
C1064       C  0.24870489  0.93543495  0.41711817     0.40000
N1065       N  0.99342001  0.94492555  0.27401717    -0.38000
N1066       N  0.07397000  0.86303705  0.36673599    -0.39600
N1067       N  0.12879545  0.94551652  0.09654962    -0.37400
N1068       N  0.24104362  0.90197492  0.16747253    -0.39800
N1069       N  0.12979007  0.94300371  0.40415619    -0.39500
N1070       N  0.25154500  0.96310201  0.44893069    -0.37200
N1071       N  0.29743561  0.75124777  0.30080012    -0.38200
N1072       N  0.20420881  0.77796609  0.22936512    -0.39900
C1073       C  0.36123806  0.67478053  0.27906147    -0.04800
C1074       C  0.39827445  0.70775419  0.26674289     0.09300
C1075       C  0.41915845  0.69878604  0.21860466    -0.02200
C1076       C  0.40518597  0.65610722  0.19075460    -0.00500
C1077       C  0.36258800  0.62992817  0.20209495    -0.04100
C1078       C  0.33655848  0.65123545  0.24182804     0.02900
C1079       C  0.40251884  0.75403780  0.29947446     0.09800
C1080       C  0.45508201  0.72906890  0.19508307     0.35700
C1081       C  0.28484321  0.65819387  0.24042603     0.39100
C1082       C  0.40932236  0.75232146  0.35179255    -0.04400
C1083       C  0.39418589  0.79180244  0.38286274     0.02700
C1084       C  0.36339573  0.82888310  0.36551651    -0.04100
C1085       C  0.36981831  0.83773075  0.31326370    -0.00300
C1086       C  0.38763852  0.80028389  0.28097860    -0.02800
C1087       C  0.42882262  0.70986446  0.37634797     0.36400
C1088       C  0.36693324  0.88588433  0.29161914     0.40000
C1089       C  0.41555891  0.79843908  0.43074126     0.39200
C1090       C  0.38635450  0.80889522  0.22838327     0.36100
C1091       C  0.35035099  0.66071831  0.32874749     0.36800
C1092       C  0.42636575  0.64663251  0.14364437     0.40000
N1093       N  0.43423491  0.80516647  0.46800565    -0.38000
N1094       N  0.44019326  0.67667079  0.40048282    -0.39600
N1095       N  0.37306494  0.92151196  0.26908985    -0.37400
N1096       N  0.38606067  0.81743932  0.18672032    -0.39800
N1097       N  0.48322143  0.74734564  0.16921522    -0.39500
N1098       N  0.43577685  0.64056386  0.10299752    -0.37200
N1099       N  0.24350160  0.66426447  0.23859475    -0.38200
N1100       N  0.34425352  0.64721128  0.36857354    -0.39900
C1101       C  0.12489622  0.55183976  0.28657967    -0.04800
C1102       C  0.17173700  0.53569120  0.30195306     0.09300
C1103       C  0.17189956  0.51768096  0.35291465    -0.02200
C1104       C  0.13022277  0.52177313  0.38452843    -0.00500
C1105       C  0.09108629  0.55098347  0.37246914    -0.04100
C1106       C  0.08486177  0.55470276  0.32027131     0.02900
C1107       C  0.21726566  0.53913654  0.26571956     0.09800
C1108       C  0.21193568  0.49359894  0.37678487     0.35700
C1109       C  0.03688311  0.55540986  0.30030078     0.39100
C1110       C  0.26323660  0.55449187  0.28326099    -0.04400
C1111       C  0.30530699  0.55545730  0.25256824     0.02700
C1112       C  0.30131136  0.55964794  0.20035744    -0.04100
C1113       C  0.26075570  0.53428125  0.18333304    -0.00300
C1114       C  0.21859910  0.52574331  0.21380577    -0.02800
C1115       C  0.26982593  0.56714703  0.33381829     0.36400
C1116       C  0.27029881  0.50339529  0.14158312     0.40000
C1117       C  0.35185597  0.54939452  0.27615262     0.39200
C1118       C  0.18062586  0.49898949  0.18958924     0.36100
C1119       C  0.11591347  0.56472407  0.23589839     0.36800
C1120       C  0.12397902  0.49168422  0.42786106     0.40000
N1121       N  0.38640615  0.54154146  0.29883096    -0.38000
N1122       N  0.27687972  0.57462000  0.37476374    -0.39600
N1123       N  0.28132526  0.47824345  0.10934929    -0.37400
N1124       N  0.15280707  0.47880614  0.16520798    -0.39800
N1125       N  0.24037015  0.47569400  0.40246916    -0.39500
N1126       N  0.11988604  0.47072161  0.46460614    -0.37200
N1127       N  0.99953301  0.55085153  0.28214933    -0.38200
N1128       N  0.10767321  0.57325377  0.19507211    -0.39900
C1129       C  0.17230463  0.78293120  0.09866008    -0.04800
C1130       C  0.17704010  0.73688959  0.12485240     0.09300
C1131       C  0.14079561  0.72926763  0.16027862    -0.02200
C1132       C  0.10782895  0.76760626  0.17078504    -0.00500
C1133       C  0.09249941  0.80448780  0.13718892    -0.04100
C1134       C  0.12790421  0.81107050  0.10009368     0.02900
C1135       C  0.22126744  0.70139012  0.12304046     0.09800
C1136       C  0.14494911  0.69031456  0.19614556     0.35700
C1137       C  0.12159224  0.84754619  0.06343802     0.39100
C1138       C  0.26790504  0.71773837  0.13624549    -0.04400
C1139       C  0.30867215  0.68600122  0.13419412     0.02700
C1140       C  0.30385945  0.63282547  0.13244567    -0.04100
C1141       C  0.26031094  0.61904069  0.10969646    -0.00300
C1142       C  0.21844943  0.65028534  0.10964183    -0.02800
C1143       C  0.27591040  0.76748290  0.15310772     0.36400
C1144       C  0.26391518  0.58155334  0.07279134     0.40000
C1145       C  0.35170443  0.71132782  0.11715387     0.39200
C1146       C  0.17337405  0.62611665  0.09836473     0.36100
C1147       C  0.21304303  0.80886529  0.07769621     0.36800
C1148       C  0.10192419  0.77889118  0.22041574     0.40000
N1149       N  0.38336048  0.73528501  0.10230941    -0.38000
N1150       N  0.28412477  0.80690086  0.16652482    -0.39600
N1151       N  0.26870136  0.55284741  0.04197790    -0.37400
N1152       N  0.14004138  0.60165851  0.09011484    -0.39800
N1153       N  0.14645462  0.66286243  0.22854583    -0.39500
N1154       N  0.09635520  0.79237235  0.25935593    -0.37200
N1155       N  0.11961001  0.87498376  0.03137391    -0.38200
N1156       N  0.24194069  0.83654060  0.06380089    -0.39900
C1157       C  0.17446599  0.40014150  0.72474410    -0.04800
C1158       C  0.16877580  0.39166767  0.77668831     0.09300
C1159       C  0.11958816  0.38301675  0.79108133    -0.02200
C1160       C  0.08116559  0.37928507  0.75566231    -0.00500
C1161       C  0.09067377  0.37933144  0.70360386    -0.04100
C1162       C  0.13326031  0.40276405  0.69295178     0.02900
C1163       C  0.21334738  0.39007804  0.81235350     0.09800
C1164       C  0.10423146  0.38044591  0.84172692     0.35700
C1165       C  0.12894969  0.43269905  0.64986100     0.39100
C1166       C  0.22041245  0.41083163  0.86153277    -0.04400
C1167       C  0.26558590  0.40124608  0.88719159     0.02700
C1168       C  0.29033808  0.35576636  0.87858244    -0.04100
C1169       C  0.26614065  0.32984447  0.84059047    -0.00300
C1170       C  0.25158101  0.35788805  0.80029351    -0.02800
C1171       C  0.18180379  0.42110361  0.89539907     0.36400
C1172       C  0.23070472  0.29411557  0.85584291     0.40000
C1173       C  0.28159588  0.43499269  0.92387885     0.39200
C1174       C  0.29271293  0.37805943  0.77390320     0.36100
C1175       C  0.22126829  0.40406035  0.70147078     0.36800
C1176       C  0.03581155  0.39837102  0.77450664     0.40000
N1177       N  0.29450118  0.46207524  0.95367205    -0.38000
N1178       N  0.15492265  0.42715642  0.92760360    -0.39600
N1179       N  0.20321168  0.26370575  0.86570588    -0.37400
N1180       N  0.32681868  0.39352507  0.75424790    -0.39800
N1181       N  0.08396395  0.38026235  0.87901754    -0.39500
N1182       N  0.00301508  0.41592282  0.79471556    -0.37200
N1183       N  0.11885304  0.45329521  0.61427582    -0.38200
N1184       N  0.25727340  0.40786075  0.67971091    -0.39900
C1185       C  0.27155144  0.21197433  0.97144299    -0.04800
C1186       C  0.22346454  0.23107954  0.97762431     0.09300
C1187       C  0.22234117  0.28445343  0.98248142    -0.02200
C1188       C  0.26427243  0.31355390  0.97332556    -0.00500
C1189       C  0.30466144  0.29464250  0.94952097    -0.04100
C1190       C  0.31184199  0.24363370  0.96012457     0.02900
C1191       C  0.17761736  0.19620706  0.97795555     0.09800
C1192       C  0.18073299  0.31334690  0.99670670     0.35700
C1193       C  0.35882405  0.22032597  0.95726699     0.39100
C1194       C  0.17507467  0.14765421  0.00060708    -0.04400
C1195       C  0.13436710  0.11598278  0.99350163     0.02700
C1196       C  0.09763678  0.12771796  0.96132420    -0.04100
C1197       C  0.09208308  0.17922395  0.95426738    -0.00300
C1198       C  0.13309586  0.21076410  0.95548353    -0.02800
C1199       C  0.21041616  0.12855866  0.03413757     0.36400
C1200       C  0.04536241  0.20102202  0.94380755     0.40000
C1201       C  0.12846580  0.06980629  0.01840386     0.39200
C1202       C  0.12646614  0.25799734  0.93293688     0.36100
C1203       C  0.28151153  0.15938249  0.97007731     0.36800
C1204       C  0.27243071  0.35895531  0.99880514     0.40000
N1205       N  0.12284627  0.02985184  0.03131638    -0.38000
N1206       N  0.23701077  0.10871766  0.06025728    -0.39600
N1207       N  0.01073615  0.22304736  0.93461259    -0.37400
N1208       N  0.11791497  0.29595342  0.91598385    -0.39800
N1209       N  0.15010358  0.34112711  0.00573759    -0.39500
N1210       N  0.28377052  0.39320560  0.02098705    -0.37200
N1211       N  0.39346894  0.19648328  0.95950351    -0.38200
N1212       N  0.29295227  0.11837353  0.96869345    -0.39900
C1213       C  0.99567422  0.27522217  0.76423602    -0.04800
C1214       C  0.01357117  0.22557522  0.76068089     0.09300
C1215       C  0.04255156  0.21929322  0.71893273    -0.02200
C1216       C  0.06425324  0.26111653  0.69635701    -0.00500
C1217       C  0.03688931  0.30510589  0.68765470    -0.04100
C1218       C  0.99812385  0.30863252  0.72221197     0.02900
C1219       C  0.02160993  0.18850130  0.80427022     0.09800
C1220       C  0.04218169  0.17237165  0.69507852     0.35700
C1221       C  0.96683913  0.35053277  0.71998107     0.39100
C1222       C  0.99385225  0.14531874  0.81698408    -0.04400
C1223       C  0.00569045  0.11551159  0.85992853     0.02700
C1224       C  0.05270389  0.11671227  0.88125517    -0.04100
C1225       C  0.08479833  0.15037983  0.85526096    -0.00300
C1226       C  0.06664791  0.19048578  0.82723931    -0.02800
C1227       C  0.96054189  0.12459389  0.78221523     0.36400
C1228       C  0.13667890  0.14978955  0.85995385     0.40000
C1229       C  0.97083671  0.08160063  0.87984621     0.39200
C1230       C  0.09491935  0.23482742  0.82187455     0.36100
C1231       C  0.99125695  0.29775718  0.81147934     0.36800
C1232       C  0.11305590  0.27094369  0.71194250     0.40000
N1233       N  0.94362953  0.05484120  0.89827135    -0.38000
N1234       N  0.93565752  0.10427086  0.75488582    -0.39600
N1235       N  0.17819347  0.15442351  0.86135275    -0.37400
N1236       N  0.11551572  0.27158488  0.81812666    -0.39800
N1237       N  0.03695155  0.13471428  0.67618985    -0.39500
N1238       N  0.15110499  0.28260945  0.72544760    -0.37200
N1239       N  0.94296974  0.38543761  0.71926488    -0.38200
N1240       N  0.99279455  0.31969886  0.84766847    -0.39900
C1241       C  0.37635966  0.20763634  0.68757477    -0.04800
C1242       C  0.37969689  0.20316539  0.73858878     0.09300
C1243       C  0.38011045  0.15427501  0.75797823    -0.02200
C1244       C  0.37758472  0.11242793  0.72779684    -0.00500
C1245       C  0.36282895  0.11630283  0.67859587    -0.04100
C1246       C  0.37323712  0.16497853  0.65790225     0.02900
C1247       C  0.37094627  0.24623423  0.77254882     0.09800
C1248       C  0.37299992  0.14420357  0.80929703     0.35700
C1249       C  0.38533195  0.17349605  0.60699335     0.39100
C1250       C  0.32906279  0.24352267  0.79720470    -0.04400
C1251       C  0.33006553  0.25192661  0.84696781     0.02700
C1252       C  0.35614565  0.29437753  0.86717726    -0.04100
C1253       C  0.38925053  0.31384130  0.83023220    -0.00300
C1254       C  0.39950102  0.28742004  0.78489010    -0.02800
C1255       C  0.28431130  0.24483372  0.76972703     0.36400
C1256       C  0.40963309  0.36201306  0.83495568     0.40000
C1257       C  0.29789344  0.21609516  0.86705594     0.39200
C1258       C  0.42568707  0.31096103  0.74553704     0.36100
C1259       C  0.37459071  0.25584510  0.66434654     0.36800
C1260       C  0.40648982  0.07146302  0.74406029     0.40000
N1261       N  0.27095431  0.18415820  0.87311972    -0.38000
N1262       N  0.24787740  0.24854367  0.74930798    -0.39600
N1263       N  0.42672150  0.40073124  0.83525867    -0.37400
N1264       N  0.44342526  0.33151477  0.71280435    -0.39800
N1265       N  0.36388750  0.13226930  0.84899245    -0.39500
N1266       N  0.43125247  0.04118723  0.76035416    -0.37200
N1267       N  0.39867417  0.18513946  0.56824978    -0.38200
N1268       N  0.37454981  0.29302810  0.64337632    -0.39900
C1269       C  0.12683519  0.23645431  0.59765443    -0.04800
C1270       C  0.17622162  0.24161846  0.61150588     0.09300
C1271       C  0.18944553  0.28863590  0.62721258    -0.02200
C1272       C  0.15708286  0.32931683  0.62393375    -0.00500
C1273       C  0.10418262  0.32367171  0.62160422    -0.04100
C1274       C  0.09279644  0.27726661  0.59884632     0.02900
C1275       C  0.21235558  0.19800492  0.61668333     0.09800
C1276       C  0.23796553  0.29671177  0.64530251     0.35700
C1277       C  0.04419264  0.26840005  0.58183717     0.39100
C1278       C  0.25070502  0.18538942  0.58274886    -0.04400
C1279       C  0.27951883  0.14164553  0.59014348     0.02700
C1280       C  0.28582089  0.12327680  0.63798765    -0.04100
C1281       C  0.25918421  0.14991873  0.67551344    -0.00300
C1282       C  0.21712914  0.17658075  0.66325479    -0.02800
C1283       C  0.27652466  0.22432559  0.55828954     0.36400
C1284       C  0.26810032  0.14279302  0.72777407     0.40000
C1285       C  0.31319153  0.12457529  0.55347665     0.39200
C1286       C  0.17987539  0.18092235  0.70031338     0.36100
C1287       C  0.10817082  0.18735798  0.59222470     0.36800
C1288       C  0.18237032  0.36970091  0.59981975     0.40000
N1289       N  0.34252725  0.11039892  0.52651086    -0.38000
N1290       N  0.30268703  0.25407639  0.54313491    -0.39600
N1291       N  0.27157358  0.13589364  0.76953425    -0.37400
N1292       N  0.15358737  0.18034914  0.73349731    -0.39800
N1293       N  0.27630269  0.30406958  0.66044843    -0.39500
N1294       N  0.20458279  0.40075652  0.58088306    -0.37200
N1295       N  0.00625980  0.25830577  0.56718056    -0.38200
N1296       N  0.09170013  0.14829947  0.59139348    -0.39900
C1297       C  0.12761362  0.01644026  0.82118857    -0.04800
C1298       C  0.17840471  0.03162307  0.81918407     0.09300
C1299       C  0.19532997  0.05053434  0.86421265    -0.02200
C1300       C  0.16559448  0.05382899  0.90700467    -0.00500
C1301       C  0.11319270  0.04979209  0.90486594    -0.04100
C1302       C  0.09828085  0.02189936  0.86461447     0.02900
C1303       C  0.21381356  0.03071728  0.77287341     0.09800
C1304       C  0.24436545  0.06843442  0.86832541     0.35700
C1305       C  0.05084111  0.99970846  0.86899830     0.39100
C1306       C  0.19891995  0.05046001  0.72736836    -0.04400
C1307       C  0.23019272  0.05200367  0.68535720     0.02700
C1308       C  0.28295835  0.04927035  0.69011352    -0.04100
C1309       C  0.29635258  0.02177304  0.73150581    -0.00300
C1310       C  0.26381235  0.01337528  0.77255902    -0.02800
C1311       C  0.15137100  0.07194910  0.72314453     0.36400
C1312       C  0.34018839  0.99384235  0.72636185     0.40000
C1313       C  0.20623281  0.06065069  0.63856887     0.39200
C1314       C  0.28566857  0.99027512  0.81471304     0.36100
C1315       C  0.09953960  0.00154992  0.77951265     0.36800
C1316       C  0.19282515  0.03685571  0.94910557     0.40000
N1317       N  0.18369454  0.06864545  0.60368621    -0.38000
N1318       N  0.11290491  0.08824642  0.71926915    -0.39600
N1319       N  0.37539790  0.97166500  0.71985383    -0.37400
N1320       N  0.30818944  0.97565316  0.84747008    -0.39800
N1321       N  0.28409899  0.08066483  0.87314863    -0.39500
N1322       N  0.21776090  0.02197852  0.97994373    -0.37200
N1323       N  0.01333776  0.98211597  0.87634777    -0.38200
N1324       N  0.07034882  0.99355011  0.75017823    -0.39900
C1325       C  0.99950578  0.24354206  0.35016873    -0.04800
C1326       C  0.01177862  0.24520125  0.29892853     0.09300
C1327       C  0.02356320  0.29228092  0.28064457    -0.02200
C1328       C  0.02639432  0.33470465  0.31183696    -0.00500
C1329       C  0.02388313  0.33099495  0.36513587    -0.04100
C1330       C  0.00059089  0.28684771  0.38059814     0.02900
C1331       C  0.01631914  0.19974073  0.26410317     0.09800
C1332       C  0.02726849  0.29836134  0.22771063     0.35700
C1333       C  0.98415174  0.28453896  0.43111357     0.39100
C1334       C  0.98900627  0.19234748  0.21885849    -0.04400
C1335       C  0.00186662  0.15414011  0.18353187     0.02700
C1336       C  0.04778218  0.12937484  0.18611319    -0.04100
C1337       C  0.07757640  0.15686427  0.21903375    -0.00300
C1338       C  0.05998774  0.17222895  0.26478472    -0.02800
C1339       C  0.95316711  0.22661260  0.20090522     0.36400
C1340       C  0.09884345  0.20183078  0.19818936     0.40000
C1341       C  0.97237492  0.15229455  0.14012908     0.39200
C1342       C  0.09875301  0.18302528  0.29838640     0.36100
C1343       C  0.98798447  0.19802960  0.37468849     0.36800
C1344       C  0.01052923  0.37839188  0.28619875     0.40000
N1345       N  0.94578866  0.15639833  0.10763965    -0.38000
N1346       N  0.92615505  0.24873189  0.17703451    -0.39600
N1347       N  0.11482133  0.23918984  0.18570648    -0.37400
N1348       N  0.13507401  0.18817833  0.31885797    -0.39800
N1349       N  0.02789943  0.30369116  0.18548579    -0.39500
N1350       N  0.99536699  0.41015712  0.26217337    -0.37200
N1351       N  0.97181703  0.28441387  0.47171319    -0.38200
N1352       N  0.97860076  0.16489512  0.39982375    -0.39900
C1353       C  0.12510568  0.22930742  0.41810645    -0.04800
C1354       C  0.15946060  0.23345948  0.45501215     0.09300
C1355       C  0.15407514  0.27722683  0.48329073    -0.02200
C1356       C  0.11369396  0.31093224  0.47579990    -0.00500
C1357       C  0.08827801  0.31202623  0.43024149    -0.04100
C1358       C  0.10364872  0.27246223  0.39877368     0.02900
C1359       C  0.20302862  0.19647487  0.45634277     0.09800
C1360       C  0.19438574  0.29433226  0.51109539     0.35700
C1361       C  0.11870124  0.28417112  0.34926393     0.39100
C1362       C  0.24947485  0.20991860  0.43853157    -0.04400
C1363       C  0.28852162  0.17511613  0.43540821     0.02700
C1364       C  0.28073767  0.12299537  0.44048225    -0.04100
C1365       C  0.24036868  0.11364976  0.47203843    -0.00300
C1366       C  0.20015148  0.14749952  0.47537912    -0.02800
C1367       C  0.26145840  0.26147837  0.43425800     0.36400
C1368       C  0.24010619  0.06949162  0.50218549     0.40000
C1369       C  0.33332695  0.19552021  0.45385659     0.39200
C1370       C  0.15519734  0.12890723  0.49494097     0.36100
C1371       C  0.09712493  0.18494138  0.41816696     0.36800
C1372       C  0.10887699  0.35166846  0.50824229     0.40000
N1373       N  0.36704361  0.21533090  0.46960303    -0.38000
N1374       N  0.27501554  0.30164044  0.43545850    -0.39600
N1375       N  0.23921539  0.03437202  0.52636506    -0.37400
N1376       N  0.11977415  0.10968562  0.50737355    -0.39800
N1377       N  0.22765347  0.31270757  0.52883261    -0.39500
N1378       N  0.10972436  0.38624689  0.53252580    -0.37200
N1379       N  0.13244435  0.29381486  0.31015323    -0.38200
N1380       N  0.07460367  0.14921571  0.42139282    -0.39900
C1381       C  0.11523089  0.01257446  0.26403647    -0.04800
C1382       C  0.16652629  0.01440087  0.25807695     0.09300
C1383       C  0.18262616  0.01753325  0.20877635    -0.02200
C1384       C  0.14946238  0.02907065  0.17015131    -0.00500
C1385       C  0.10108027  0.04694658  0.18076445    -0.04100
C1386       C  0.08398343  0.03242037  0.22754866     0.02900
C1387       C  0.20109650  0.02379667  0.30176418     0.09800
C1388       C  0.23405542  0.01788565  0.19671195     0.35700
C1389       C  0.03466752  0.04063377  0.24143587     0.39100
C1390       C  0.24658899  0.99956581  0.30859287    -0.04400
C1391       C  0.27749589  0.01108249  0.34861618     0.02700
C1392       C  0.26594479  0.04836778  0.38223416    -0.04100
C1393       C  0.21551269  0.06067480  0.38228837    -0.00300
C1394       C  0.18849644  0.05826470  0.33876165    -0.02800
C1395       C  0.26311833  0.96150845  0.27660361     0.36400
C1396       C  0.18542449  0.04171511  0.42181466     0.40000
C1397       C  0.32255221  0.98516717  0.35455807     0.39200
C1398       C  0.14108895  0.08069576  0.34032045     0.36100
C1399       C  0.09260242  0.99590040  0.30926880     0.36800
C1400       C  0.17179994  0.03023394  0.12232718     0.40000
N1401       N  0.36075917  0.96825201  0.35638939    -0.38000
N1402       N  0.27950742  0.93107104  0.25241533    -0.39600
N1403       N  0.15933938  0.02631107  0.45159090    -0.37400
N1404       N  0.10119769  0.09318428  0.34415140    -0.39800
N1405       N  0.27408966  0.01669170  0.18376855    -0.39500
N1406       N  0.19754789  0.02445649  0.08927451    -0.37200
N1407       N  0.99675673  0.04566120  0.25840538    -0.38200
N1408       N  0.06883774  0.98676522  0.34322586    -0.39900
C1409       C  0.37048398  0.18442196  0.33627712    -0.04800
C1410       C  0.34901949  0.18064190  0.28851144     0.09300
C1411       C  0.32958635  0.13414141  0.27665969    -0.02200
C1412       C  0.33088229  0.09513254  0.31144338    -0.00500
C1413       C  0.33833484  0.10418256  0.36298277    -0.04100
C1414       C  0.37046127  0.14332956  0.36981234     0.02900
C1415       C  0.34636780  0.22505105  0.25273534     0.09800
C1416       C  0.32039036  0.12121480  0.22598050     0.35700
C1417       C  0.40402099  0.13840463  0.41009136     0.39100
C1418       C  0.37155700  0.22999396  0.20697674    -0.04400
C1419       C  0.36817422  0.27433811  0.17815635     0.02700
C1420       C  0.33872099  0.31481890  0.19120752    -0.04100
C1421       C  0.32407879  0.31147560  0.24227375    -0.00300
C1422       C  0.31806149  0.26554376  0.26598754    -0.02800
C1423       C  0.39512656  0.18851515  0.18439471     0.36400
C1424       C  0.34224493  0.34687811  0.27667174     0.40000
C1425       C  0.40551181  0.28451650  0.14403121     0.39200
C1426       C  0.27983722  0.25925333  0.30189614     0.36100
C1427       C  0.38486800  0.23196394  0.35421846     0.36800
C1428       C  0.35573172  0.05368650  0.28944796     0.40000
N1429       N  0.43603708  0.29647527  0.11778601    -0.38000
N1430       N  0.41133715  0.15579195  0.16275375    -0.39600
N1431       N  0.36014707  0.37200791  0.30566229    -0.37400
N1432       N  0.24737687  0.25224903  0.32802664    -0.39800
N1433       N  0.31601093  0.10833475  0.18580095    -0.39500
N1434       N  0.37652894  0.02361287  0.26795508    -0.37200
N1435       N  0.42842462  0.13089147  0.44380388    -0.38200
N1436       N  0.39206627  0.27070021  0.37001687    -0.39900
C1437       C  0.18533396  0.38863549  0.34730380    -0.04800
C1438       C  0.17264825  0.41513204  0.30494220     0.09300
C1439       C  0.12273689  0.43152189  0.30303143    -0.02200
C1440       C  0.09026433  0.42325517  0.34307444    -0.00500
C1441       C  0.10116124  0.38995226  0.38032057    -0.04100
C1442       C  0.15242359  0.38204977  0.38654560     0.02900
C1443       C  0.20906414  0.41666211  0.26148332     0.09800
C1444       C  0.10040688  0.45123499  0.25933701     0.35700
C1445       C  0.17547937  0.38677764  0.43362820     0.39100
C1446       C  0.19697127  0.38735429  0.22198231    -0.04400
C1447       C  0.23426010  0.36181198  0.19935665     0.02700
C1448       C  0.27964236  0.38520394  0.18637861    -0.04100
C1449       C  0.29128140  0.42299317  0.22014257    -0.00300
C1450       C  0.25957474  0.43250122  0.26162324    -0.02800
C1451       C  0.14856134  0.36859047  0.21713372     0.36400
C1452       C  0.33970071  0.44332176  0.22000671     0.40000
C1453       C  0.22739528  0.30946284  0.20459195     0.39200
C1454       C  0.28382257  0.45050558  0.30470621     0.36100
C1455       C  0.23346352  0.36887927  0.35203298     0.36800
C1456       C  0.04528836  0.44972018  0.34749901     0.40000
N1457       N  0.21392089  0.27056861  0.21471521    -0.38000
N1458       N  0.10953366  0.35395453  0.21524772    -0.39600
N1459       N  0.37855888  0.45909837  0.22241123    -0.37400
N1460       N  0.30948252  0.46219905  0.33611525    -0.39800
N1461       N  0.07748975  0.46438571  0.22625141    -0.39500
N1462       N  0.00778524  0.46828331  0.35081918    -0.37200
N1463       N  0.19795996  0.39481013  0.46846576    -0.38200
N1464       N  0.27288608  0.35534198  0.35593646    -0.39900
C1465       C  0.12998321  0.20389668  0.08244415    -0.04800
C1466       C  0.17805559  0.20932984  0.10209775     0.09300
C1467       C  0.19194835  0.17339728  0.13630444    -0.02200
C1468       C  0.16044449  0.13498670  0.15133967    -0.00500
C1469       C  0.11480390  0.12351341  0.12576486    -0.04100
C1470       C  0.10144716  0.16041799  0.09118413     0.02900
C1471       C  0.21347413  0.25312068  0.09398222     0.09800
C1472       C  0.23476956  0.18347013  0.16513727     0.35700
C1473       C  0.05589560  0.15633815  0.06575782     0.39100
C1474       C  0.19916679  0.30280019  0.10119784    -0.04400
C1475       C  0.23426049  0.34110281  0.10243847     0.02700
C1476       C  0.28449867  0.32991444  0.11143517    -0.04100
C1477       C  0.29818012  0.28518816  0.09027287    -0.00300
C1478       C  0.26492407  0.24606820  0.08560447    -0.02800
C1479       C  0.14941101  0.31654781  0.11125623     0.36400
C1480       C  0.34298617  0.28182088  0.06335793     0.40000
C1481       C  0.21651125  0.39108396  0.09675146     0.39200
C1482       C  0.28855136  0.19884592  0.07898348     0.36100
C1483       C  0.10586350  0.24261980  0.05533139     0.36800
C1484       C  0.17024922  0.12227334  0.20241968     0.40000
N1485       N  0.19841919  0.42861078  0.08836382    -0.38000
N1486       N  0.11011623  0.33035851  0.11726184    -0.39600
N1487       N  0.37831490  0.27683686  0.04100711    -0.37400
N1488       N  0.31386547  0.16486730  0.07644398    -0.39800
N1489       N  0.26819147  0.19595971  0.18698646    -0.39500
N1490       N  0.18104290  0.11913298  0.24328036    -0.37200
N1491       N  0.02081917  0.15564905  0.04275390    -0.38200
N1492       N  0.08159852  0.27098971  0.03514405    -0.39900
loop_ 
_geom_bond_atom_site_label_1 
_geom_bond_atom_site_label_2 
_geom_bond_distance 
_geom_bond_site_symmetry_2 
_ccdc_geom_bond_type 
C1           C17   1.711       .  S
C1         C1420   1.662       .  S
C1         C1448   1.615       .  S
C1         C1476   1.616       .  S
C2           C69   1.684       .  S
C2         C1364   1.656       .  S
C2         C1392   1.612       .  S
C2         C1413   1.641       .  S
C3          C114   1.723       .  S
C3         C1336   1.665       .  S
C3         C1385   1.610       .  S
C3         C1469   1.627       .  S
C4          C128   1.701       .  S
C4         C1329   1.660       .  S
C4         C1357   1.644       .  S
C4         C1441   1.606       .  S
C5           C67   1.668       .  S
C5         C1245   1.630       .  S
C5         C1280   1.606       .  S
C5         C1308   1.658       .  S
C6           C95   1.722       .  S
C6         C1196   1.595       .  S
C6         C1224   1.651       .  S
C6         C1301   1.647       .  S
C7          C130   1.725       .  S
C7         C1161   1.634       .  S
C7         C1217   1.643       .  S
C7         C1273   1.703       .  S
C8           C20   1.696       .  S
C8         C1168   1.617       .  S
C8         C1189   1.604       .  S
C8         C1252   1.644       .  S
O9           C17   1.286       .  A
O9          Co29   2.126       .  S
O10          C18   1.286       .  A
O10         Co30   2.120   1_556  S
O11          C19   1.291       .  A
O11         Co31   2.108       .  S
O12          C20   1.282       .  A
O12         Co32   2.092       .  S
O13          C19   1.280       .  A
O13         Co30   2.098       .  S
O14          C20   1.293       .  A
O14         Co29   2.126   1_556  S
O15          C18   1.290       .  A
O15         Co32   2.120       .  S
O16          C17   1.278       .  A
O16         Co31   2.106       .  S
C18          C75   1.709       .  S
C19          C38   1.677       .  S
O21          C34   1.279       .  A
O21         Co29   2.101   1_556  S
O22          C35   1.296       .  A
O22         Co30   2.185       .  S
O23          C36   1.293       .  A
O23         Co31   2.129       .  S
O24          C37   1.286       .  A
O24         Co32   2.109       .  S
O25          C37   1.285       .  A
O25         Co30   2.082   1_556  S
O26          C36   1.287       .  A
O26         Co29   2.108       .  S
O27          C34   1.286       .  A
O27         Co32   2.119       .  S
O28          C35   1.294       .  A
O28         Co31   2.147       .  S
Co29         O33   2.306       .  S
Co30         O33   2.322       .  S
Co31         O33   2.282       .  S
Co32         O33   2.352   1_556  S
C34          C71   1.693       .  S
C35          C81   1.752       .  S
C36         C118   1.690       .  S
C37          C83   1.687       .  S
C38        C1077   1.594       .  S
C38        C1112   1.634       .  S
C38        C1140   1.647       .  S
C39         C113   1.673       .  S
C39        C1021   1.642       .  S
C39        C1056   1.651       .  S
C39        C1133   1.644       .  S
C40         C147   1.717       .  S
C40         C993   1.669       .  S
C40        C1028   1.644       .  S
C40        C1105   1.625       .  S
C41          C50   1.694       .  S
C41        C1000   1.636       .  S
C41        C1049   1.623       .  S
C41        C1084   1.626       .  S
O42          C50   1.278       .  A
O42         Co62   2.090       .  S
O43          C51   1.293       .  A
O43         Co63   2.115       .  S
O44          C52   1.291       .  A
O44         Co64   2.129       .  S
O45          C53   1.314       .  A
O45         Co65   2.185       .  S
O46          C52   1.287       .  A
O46         Co63   2.093       .  S
O47          C53   1.280       .  A
O47         Co62   2.079       .  S
O48          C51   1.305       .  A
O48         Co65   2.126       .  S
O49          C50   1.287       .  A
O49         Co64   2.116       .  S
C51          C85   1.682       .  S
C52          C79   1.691       .  S
C53          C76   1.700       .  S
O54          C67   1.289       .  A
O54         Co62   2.116   1_545  S
O55          C68   1.289       .  A
O55         Co63   2.102   1_545  S
O56          C69   1.285       .  A
O56         Co64   2.124   1_545  S
O57          C70   1.319       .  A
O57         Co65   2.192   1_545  S
O58          C70   1.297       .  A
O58         Co63   2.141   1_545  S
O59          C69   1.272       .  A
O59         Co62   2.076   1_545  S
O60          C67   1.297       .  A
O60         Co65   2.098   1_545  S
O61          C68   1.285       .  A
O61         Co64   2.119   1_545  S
Co62         O66   2.300       .  S
Co63         O66   2.240       .  S
Co64         O66   2.257       .  S
Co65         O66   2.211       .  S
C68         C116   1.685       .  S
C70          C73   1.737       .  S
C71         C916   1.647       .  S
C71         C944   1.668       .  S
C71         C965   1.599       .  S
C72         C129   1.708       .  S
C72         C853   1.636       .  S
C72         C881   1.643       .  S
C72         C972   1.605       .  S
C73         C825   1.617       .  S
C73         C860   1.704       .  S
C73         C909   1.641       .  S
C74          C98   1.676       .  S
C74         C832   1.631       .  S
C74         C888   1.627       .  S
C74         C937   1.644       .  S
C75         C748   1.618       .  S
C75         C769   1.658       .  S
C75         C797   1.612       .  S
C76         C685   1.655       .  S
C76         C713   1.612       .  S
C76         C804   1.656       .  S
C77         C146   1.750       .  S
C77         C664   1.661       .  S
C77         C692   1.605       .  S
C77         C741   1.615       .  S
C78          C97   1.696       .  S
C78         C657   1.645       .  S
C78         C720   1.663       .  S
C78         C776   1.622       .  S
C79         C580   1.626       .  S
C79         C608   1.648       .  S
C79         C629   1.636       .  S
C80         C145   1.729       .  S
C80         C517   1.637       .  S
C80         C545   1.649       .  S
C80         C636   1.643       .  S
C81         C489   1.644       .  S
C81         C524   1.649       .  S
C81         C573   1.661       .  S
C82         C115   1.702       .  S
C82         C496   1.638       .  S
C82         C552   1.633       .  S
C82         C601   1.632       .  S
C83         C405   1.623       .  S
C83         C433   1.620       .  S
C83         C461   1.581       .  S
C84         C148   1.716       .  S
C84         C349   1.651       .  S
C84         C377   1.617       .  S
C84         C440   1.628       .  S
C85         C328   1.660       .  S
C85         C356   1.654       .  S
C85         C412   1.623       .  S
C86          C96   1.746       .  S
C86         C321   1.646       .  S
C86         C384   1.658       .  S
C86         C468   1.646       .  S
O87          C95   1.306   1_655  A
O87        Co107   2.175   1_556  S
O88          C96   1.302       .  A
O88        Co108   2.137   1_556  S
O89          C97   1.296       .  A
O89        Co109   2.126   1_556  S
O90          C98   1.287       .  A
O90        Co110   2.093   1_546  S
O91          C97   1.290   1_655  A
O91        Co108   2.115   1_556  S
O92          C98   1.279       .  A
O92        Co107   2.093   1_556  S
O93          C96   1.313       .  A
O93        Co110   2.206   1_556  S
O94          C95   1.297       .  A
O94        Co109   2.121   1_546  S
O99         C112   1.297       .  A
O99        Co107   2.165       .  S
O100        C113   1.288   1_655  A
O100       Co108   2.101       .  S
O101        C114   1.299       .  A
O101       Co109   2.148   1_545  S
O102        C115   1.280       .  A
O102       Co110   2.114       .  S
O103        C115   1.272       .  A
O103       Co108   2.091       .  S
O104        C114   1.291   1_655  A
O104       Co107   2.129       .  S
O105        C112   1.303       .  A
O105       Co110   2.171   1_545  S
O106        C113   1.299       .  A
O106       Co109   2.117       .  S
Co107       O111   2.346   1_545  S
Co108       O111   2.291       .  S
Co109       O111   2.213   1_455  S
Co110       O111   2.282       .  S
C112        C117   1.758       .  S
C116        C237   1.647       .  S
C116        C272   1.618       .  S
C116        C293   1.631       .  S
C117        C181   1.696       .  S
C117        C216   1.660       .  S
C117        C300   1.601       .  S
C118        C160   1.663       .  S
C118        C188   1.660       .  S
C118        C244   1.641       .  S
C119        C131   1.735       .  S
C119        C153   1.650       .  S
C119        C209   1.656       .  S
C119        C265   1.651       .  S
O120        C128   1.288   1_655  A
O120       Co140   2.132       .  S
O121        C129   1.303       .  A
O121       Co141   2.158       .  S
O122        C130   1.299       .  A
O122       Co142   2.168       .  S
O123        C131   1.296       .  A
O123       Co143   2.166       .  S
O124        C130   1.290   1_655  A
O124       Co141   2.130       .  S
O125        C131   1.281       .  A
O125       Co140   2.108       .  S
O126        C129   1.284       .  A
O126       Co143   2.112       .  S
O127        C128   1.280       .  A
O127       Co142   2.106       .  S
O132        C145   1.296       .  A
O132       Co140   2.150       .  S
O133        C146   1.305   1_655  A
O133       Co141   2.179       .  S
O134        C147   1.294       .  A
O134       Co142   2.141       .  S
O135        C148   1.301       .  A
O135       Co143   2.163       .  S
O136        C148   1.289       .  A
O136       Co141   2.115       .  S
O137        C147   1.293   1_655  A
O137       Co140   2.144       .  S
O138        C145   1.288       .  A
O138       Co143   2.136       .  S
O139        C146   1.288       .  A
O139       Co142   2.131       .  S
Co140       O144   2.344       .  S
Co141       O144   2.313       .  S
Co142       O144   2.325   1_455  S
Co143       O144   2.338       .  S
C149        C150   1.407       .  A
C149        C154   1.428       .  A
C149        C167   1.434       .  S
C150        C151   1.438       .  A
C150        C155   1.583       .  S
C151        C152   1.447       .  A
C151        C156   1.441       .  S
C152        C153   1.423       .  A
C152        C168   1.431       .  S
C153        C154   1.437       .  A
C154        C157   1.432       .  S
C155        C158   1.415       .  A
C155        C162   1.445       .  A
C156        N173   1.156       .  T
C157        N175   1.156       .  T
C158        C159   1.440       .  A
C158        C163   1.449       .  S
C159        C160   1.454       .  A
C159        C165   1.449       .  S
C160        C161   1.381       .  A
C161        C162   1.442       .  A
C161        C164   1.437       .  S
C162        C166   1.431       .  S
C163        N170   1.157       .  T
C164        N171   1.159       .  T
C165        N169   1.159       .  T
C166        N172   1.156       .  T
C167        N176   1.151       .  T
C168        N174   1.151       .  T
C177        C178   1.396       .  A
C177        C182   1.448       .  A
C177        C195   1.426       .  S
C178        C179   1.371       .  A
C178        C183   1.536       .  S
C179        C180   1.420       .  A
C179        C184   1.468       .  S
C180        C181   1.506       .  A
C180        C196   1.448       .  S
C181        C182   1.434       .  A
C182        C185   1.421       .  S
C183        C186   1.427       .  A
C183        C190   1.408       .  A
C184        N201   1.153       .  T
C185        N203   1.148       .  T
C186        C187   1.435       .  A
C186        C191   1.436       .  S
C187        C188   1.413       .  A
C187        C193   1.431       .  S
C188        C189   1.434       .  A
C189        C190   1.403       .  A
C189        C192   1.439       .  S
C190        C194   1.448       .  S
C191        N198   1.158       .  T
C192        N199   1.154       .  T
C193        N197   1.152       .  T
C194        N200   1.154       .  T
C195        N204   1.155       .  T
C196        N202   1.161       .  T
C205        C206   1.438       .  A
C205        C210   1.440       .  A
C205        C223   1.436       .  S
C206        C207   1.425       .  A
C206        C211   1.580       .  S
C207        C208   1.449       .  A
C207        C212   1.445       .  S
C208        C209   1.442       .  A
C208        C224   1.440       .  S
C209        C210   1.405       .  A
C210        C213   1.439       .  S
C211        C214   1.476       .  A
C211        C218   1.396       .  A
C212        N229   1.157       .  T
C213        N231   1.154       .  T
C214        C215   1.502       .  A
C214        C219   1.432       .  S
C215        C216   1.451       .  A
C215        C221   1.431       .  S
C216        C217   1.398       .  A
C217        C218   1.398       .  A
C217        C220   1.459       .  S
C218        C222   1.432       .  S
C219        N226   1.155       .  T
C220        N227   1.150       .  T
C221        N225   1.156       .  T
C222        N228   1.155       .  T
C223        N232   1.158       .  T
C224        N230   1.156       .  T
C233        C234   1.406       .  A
C233        C238   1.432       .  A
C233        C251   1.436       .  S
C234        C235   1.391       .  A
C234        C239   1.524       .  S
C235        C236   1.417       .  A
C235        C240   1.452       .  S
C236        C237   1.457       .  A
C236        C252   1.438       .  S
C237        C238   1.435       .  A
C238        C241   1.427       .  S
C239        C242   1.414       .  A
C239        C246   1.407       .  A
C240        N257   1.157       .  T
C241        N259   1.154       .  T
C242        C243   1.424       .  A
C242        C247   1.442       .  S
C243        C244   1.401       .  A
C243        C249   1.424       .  S
C244        C245   1.447       .  A
C245        C246   1.423       .  A
C245        C248   1.446       .  S
C246        C250   1.455       .  S
C247        N254   1.157       .  T
C248        N255   1.159       .  T
C249        N253   1.151       .  T
C250        N256   1.158       .  T
C251        N260   1.150       .  T
C252        N258   1.151       .  T
C261        C262   1.396       .  A
C261        C266   1.405       .  A
C261        C279   1.428       .  S
C262        C263   1.441       .  A
C262        C267   1.574       .  S
C263        C264   1.457       .  A
C263        C268   1.442       .  S
C264        C265   1.440       .  A
C264        C280   1.435       .  S
C265        C266   1.447       .  A
C266        C269   1.442       .  S
C267        C270   1.446       .  A
C267        C274   1.416       .  A
C268        N285   1.158       .  T
C269        N287   1.155       .  T
C270        C271   1.434       .  A
C270        C275   1.434       .  S
C271        C272   1.386       .  A
C271        C277   1.432       .  S
C272        C273   1.435       .  A
C273        C274   1.425       .  A
C273        C276   1.449       .  S
C274        C278   1.432       .  S
C275        N282   1.158       .  T
C276        N283   1.157       .  T
C277        N281   1.153       .  T
C278        N284   1.149       .  T
C279        N288   1.149       .  T
C280        N286   1.156       .  T
C289        C290   1.443       .  A
C289        C294   1.418       .  A
C289        C307   1.444       .  S
C290        C291   1.424       .  A
C290        C295   1.567       .  S
C291        C292   1.435       .  A
C291        C296   1.447       .  S
C292        C293   1.442       .  A
C292        C308   1.443       .  S
C293        C294   1.399       .  A
C294        C297   1.430   1_545  S
C295        C298   1.414       .  A
C295        C302   1.454       .  A
C296        N313   1.159       .  T
C297        N315   1.152       .  T
C298        C299   1.403       .  A
C298        C303   1.440       .  S
C299        C300   1.421       .  A
C299        C305   1.437       .  S
C300        C301   1.395       .  A
C301        C302   1.435       .  A
C301        C304   1.438   1_545  S
C302        C306   1.432   1_545  S
C303        N310   1.153       .  T
C304        N311   1.154       .  T
C305        N309   1.155       .  T
C306        N312   1.155       .  T
C307        N316   1.156   1_545  T
C308        N314   1.159       .  T
C317        C318   1.413       .  A
C317        C322   1.443       .  A
C317        C335   1.408       .  S
C318        C319   1.396       .  A
C318        C323   1.555       .  S
C319        C320   1.415       .  A
C319        C324   1.441       .  S
C320        C321   1.464       .  A
C320        C336   1.451       .  S
C321        C322   1.400       .  A
C322        C325   1.416       .  S
C323        C326   1.395       .  A
C323        C330   1.427       .  A
C324        N341   1.153       .  T
C325        N343   1.153       .  T
C326        C327   1.428       .  A
C326        C331   1.459       .  S
C327        C328   1.465       .  A
C327        C333   1.446       .  S
C328        C329   1.404       .  A
C329        C330   1.436       .  A
C329        C332   1.433       .  S
C330        C334   1.444       .  S
C331        N338   1.154       .  T
C332        N339   1.154       .  T
C333        N337   1.160       .  T
C334        N340   1.158       .  T
C335        N344   1.152       .  T
C336        N342   1.155       .  T
C345        C346   1.393       .  A
C345        C350   1.409       .  A
C345        C363   1.417       .  S
C346        C347   1.430       .  A
C346        C351   1.568       .  S
C347        C348   1.453       .  A
C347        C352   1.441       .  S
C348        C349   1.434       .  A
C348        C364   1.420       .  S
C349        C350   1.444       .  A
C350        C353   1.447       .  S
C351        C354   1.427       .  A
C351        C358   1.421       .  A
C352        N369   1.157       .  T
C353        N371   1.155       .  T
C354        C355   1.445       .  A
C354        C359   1.439       .  S
C355        C356   1.416       .  A
C355        C361   1.442       .  S
C356        C357   1.437       .  A
C357        C358   1.434       .  A
C357        C360   1.444       .  S
C358        C362   1.449       .  S
C359        N366   1.154       .  T
C360        N367   1.157       .  T
C361        N365   1.155       .  T
C362        N368   1.157       .  T
C363        N372   1.143       .  T
C364        N370   1.151       .  T
C373        C374   1.450       .  A
C373        C378   1.438       .  A
C373        C391   1.444       .  S
C374        C375   1.426       .  A
C374        C379   1.598       .  S
C375        C376   1.432       .  A
C375        C380   1.438       .  S
C376        C377   1.397       .  A
C376        C392   1.446       .  S
C377        C378   1.434       .  A
C378        C381   1.454       .  S
C379        C382   1.456       .  A
C379        C386   1.422       .  A
C380        N397   1.157       .  T
C381        N399   1.157       .  T
C382        C383   1.452       .  A
C382        C387   1.440       .  S
C383        C384   1.409       .  A
C383        C389   1.434       .  S
C384        C385   1.461       .  A
C385        C386   1.433       .  A
C385        C388   1.450       .  S
C386        C390   1.449       .  S
C387        N394   1.157       .  T
C388        N395   1.158       .  T
C389        N393   1.153       .  T
C390        N396   1.158       .  T
C391        N400   1.157       .  T
C392        N398   1.157       .  T
C401        C402   1.415       .  A
C401        C406   1.438       .  A
C401        C419   1.439       .  S
C402        C403   1.370       .  A
C402        C407   1.527       .  S
C403        C404   1.403       .  A
C403        C408   1.460       .  S
C404        C405   1.460       .  A
C404        C420   1.422       .  S
C405        C406   1.431       .  A
C406        C409   1.428       .  S
C407        C410   1.434       .  A
C407        C414   1.419       .  A
C408        N425   1.156       .  T
C409        N427   1.150       .  T
C410        C411   1.387       .  A
C410        C415   1.447       .  S
C411        C412   1.406       .  A
C411        C417   1.442       .  S
C412        C413   1.401       .  A
C413        C414   1.444       .  A
C413        C416   1.435       .  S
C414        C418   1.441       .  S
C415        N422   1.157       .  T
C416        N423   1.155       .  T
C417        N421   1.156       .  T
C418        N424   1.158       .  T
C419        N428   1.155       .  T
C420        N426   1.149       .  T
C429        C430   1.399       .  A
C429        C434   1.388       .  A
C429        C447   1.431       .  S
C430        C431   1.454       .  A
C430        C435   1.537       .  S
C431        C432   1.442       .  A
C431        C436   1.438       .  S
C432        C433   1.414       .  A
C432        C448   1.429       .  S
C433        C434   1.426       .  A
C434        C437   1.449       .  S
C435        C438   1.396       .  A
C435        C442   1.430       .  A
C436        N453   1.155       .  T
C437        N455   1.156       .  T
C438        C439   1.410       .  A
C438        C443   1.435       .  S
C439        C440   1.448       .  A
C439        C445   1.449       .  S
C440        C441   1.414       .  A
C441        C442   1.419       .  A
C441        C444   1.438       .  S
C442        C446   1.441       .  S
C443        N450   1.148       .  T
C444        N451   1.155       .  T
C445        N449   1.160       .  T
C446        N452   1.157       .  T
C447        N456   1.149       .  T
C448        N454   1.154       .  T
C457        C458   1.456       .  A
C457        C462   1.437       .  A
C457        C475   1.445   1_556  S
C458        C459   1.454       .  A
C458        C463   1.605       .  S
C459        C460   1.415       .  A
C459        C464   1.428       .  S
C460        C461   1.368       .  A
C460        C476   1.433       .  S
C461        C462   1.414       .  A
C462        C465   1.444       .  S
C463        C466   1.436       .  A
C463        C470   1.452       .  A
C464        N481   1.156       .  T
C465        N483   1.156       .  T
C466        C467   1.430       .  A
C466        C471   1.453       .  S
C467        C468   1.451       .  A
C467        C473   1.455       .  S
C468        C469   1.405       .  A
C469        C470   1.429       .  A
C469        C472   1.436   1_556  S
C470        C474   1.433       .  S
C471        N478   1.158       .  T
C472        N479   1.154       .  T
C473        N477   1.157       .  T
C474        N480   1.158       .  T
C475        N484   1.157       .  T
C476        N482   1.158   1_556  T
C485        C486   1.428       .  A
C485        C490   1.432       .  A
C485        C503   1.437       .  S
C486        C487   1.443       .  A
C486        C491   1.589       .  S
C487        C488   1.448       .  A
C487        C492   1.445       .  S
C488        C489   1.428       .  A
C488        C504   1.440       .  S
C489        C490   1.424       .  A
C490        C493   1.435       .  S
C491        C494   1.419       .  A
C491        C498   1.449       .  A
C492        N509   1.158       .  T
C493        N511   1.155       .  T
C494        C495   1.405       .  A
C494        C499   1.432       .  S
C495        C496   1.429       .  A
C495        C501   1.424       .  S
C496        C497   1.418       .  A
C497        C498   1.448       .  A
C497        C500   1.424       .  S
C498        C502   1.437       .  S
C499        N506   1.151       .  T
C500        N507   1.151       .  T
C501        N505   1.148       .  T
C502        N508   1.157       .  T
C503        N512   1.154       .  T
C504        N510   1.160       .  T
C513        C514   1.387       .  A
C513        C518   1.412       .  A
C513        C531   1.440       .  S
C514        C515   1.413       .  A
C514        C519   1.532       .  S
C515        C516   1.424       .  A
C515        C520   1.432       .  S
C516        C517   1.416       .  A
C516        C532   1.424       .  S
C517        C518   1.478       .  A
C518        C521   1.457       .  S
C519        C522   1.401       .  A
C519        C526   1.428       .  A
C520        N537   1.150       .  T
C521        N539   1.158       .  T
C522        C523   1.407       .  A
C522        C527   1.457       .  S
C523        C524   1.452       .  A
C523        C529   1.443       .  S
C524        C525   1.422       .  A
C525        C526   1.425       .  A
C525        C528   1.432       .  S
C526        C530   1.447       .  S
C527        N534   1.158       .  T
C528        N535   1.153       .  T
C529        N533   1.157       .  T
C530        N536   1.157       .  T
C531        N540   1.149       .  T
C532        N538   1.148       .  T
C541        C542   1.434       .  A
C541        C546   1.385       .  A
C541        C559   1.430       .  S
C542        C543   1.460       .  A
C542        C547   1.588       .  S
C543        C544   1.476       .  A
C543        C548   1.428       .  S
C544        C545   1.446       .  A
C544        C560   1.436       .  S
C545        C546   1.408       .  A
C546        C549   1.465       .  S
C547        C550   1.433       .  A
C547        C554   1.452       .  A
C548        N565   1.154       .  T
C549        N567   1.154       .  T
C550        C551   1.436       .  A
C550        C555   1.448       .  S
C551        C552   1.423       .  A
C551        C557   1.455       .  S
C552        C553   1.409       .  A
C553        C554   1.440       .  A
C553        C556   1.436       .  S
C554        C558   1.439       .  S
C555        N562   1.158       .  T
C556        N563   1.153       .  T
C557        N561   1.156       .  T
C558        N564   1.158       .  T
C559        N568   1.153       .  T
C560        N566   1.155       .  T
C569        C570   1.404       .  A
C569        C574   1.440       .  A
C569        C587   1.445       .  S
C570        C571   1.427       .  A
C570        C575   1.573       .  S
C571        C572   1.447       .  A
C571        C576   1.439       .  S
C572        C573   1.417       .  A
C572        C588   1.419       .  S
C573        C574   1.452       .  A
C574        C577   1.433       .  S
C575        C578   1.444       .  A
C575        C582   1.418       .  A
C576        N593   1.154       .  T
C577        N595   1.151       .  T
C578        C579   1.435       .  A
C578        C583   1.432       .  S
C579        C580   1.373       .  A
C579        C585   1.430       .  S
C580        C581   1.437       .  A
C581        C582   1.434       .  A
C581        C584   1.440       .  S
C582        C586   1.445       .  S
C583        N590   1.157       .  T
C584        N591   1.155       .  T
C585        N589   1.155       .  T
C586        N592   1.158       .  T
C587        N596   1.155       .  T
C588        N594   1.148       .  T
C597        C598   1.377       .  A
C597        C602   1.378       .  A
C597        C615   1.433       .  S
C598        C599   1.417       .  A
C598        C603   1.506       .  S
C599        C600   1.442       .  A
C599        C604   1.443       .  S
C600        C601   1.449       .  A
C600        C616   1.426       .  S
C601        C602   1.451       .  A
C602        C605   1.435       .  S
C603        C606   1.433       .  A
C603        C610   1.393       .  A
C604        N621   1.157       .  T
C605        N623   1.154       .  T
C606        C607   1.422       .  A
C606        C611   1.433       .  S
C607        C608   1.405       .  A
C607        C613   1.445       .  S
C608        C609   1.468       .  A
C609        C610   1.406       .  A
C609        C612   1.454       .  S
C610        C614   1.456       .  S
C611        N618   1.156       .  T
C612        N619   1.161       .  T
C613        N617   1.152       .  T
C614        N620   1.155       .  T
C615        N624   1.153       .  T
C616        N622   1.154       .  T
C625        C626   1.446       .  A
C625        C630   1.455       .  A
C625        C643   1.426       .  S
C626        C627   1.416       .  A
C626        C631   1.599       .  S
C627        C628   1.407       .  A
C627        C632   1.434       .  S
C628        C629   1.424       .  A
C628        C644   1.418       .  S
C629        C630   1.419       .  A
C630        C633   1.441       .  S
C631        C634   1.433       .  A
C631        C638   1.438       .  A
C632        N649   1.157       .  T
C633        N651   1.153       .  T
C634        C635   1.444       .  A
C634        C639   1.443       .  S
C635        C636   1.442       .  A
C635        C641   1.455       .  S
C636        C637   1.423       .  A
C637        C638   1.447       .  A
C637        C640   1.441       .  S
C638        C642   1.444       .  S
C639        N646   1.153       .  T
C640        N647   1.155       .  T
C641        N645   1.157       .  T
C642        N648   1.158       .  T
C643        N652   1.154       .  T
C644        N650   1.147       .  T
C653        C654   1.409       .  A
C653        C658   1.414       .  A
C653        C671   1.437       .  S
C654        C655   1.448   1_455  A
C654        C659   1.573       .  S
C655        C656   1.451       .  A
C655        C660   1.437       .  S
C656        C657   1.395   1_655  A
C656        C672   1.443       .  S
C657        C658   1.439       .  A
C658        C661   1.446       .  S
C659        C662   1.436   1_455  A
C659        C666   1.391       .  A
C660        N677   1.157       .  T
C661        N679   1.158       .  T
C662        C663   1.452       .  A
C662        C667   1.429       .  S
C663        C664   1.390   1_655  A
C663        C669   1.423       .  S
C664        C665   1.462       .  A
C665        C666   1.433       .  A
C665        C668   1.424       .  S
C666        C670   1.443       .  S
C667        N674   1.157       .  T
C668        N675   1.149       .  T
C669        N673   1.156       .  T
C670        N676   1.151       .  T
C671        N680   1.152       .  T
C672        N678   1.158       .  T
C681        C682   1.435       .  A
C681        C686   1.423       .  A
C681        C699   1.446       .  S
C682        C683   1.456       .  A
C682        C687   1.608       .  S
C683        C684   1.443       .  A
C683        C688   1.414       .  S
C684        C685   1.383       .  A
C684        C700   1.440       .  S
C685        C686   1.447       .  A
C686        C689   1.446       .  S
C687        C690   1.459       .  A
C687        C694   1.442       .  A
C688        N705   1.151       .  T
C689        N707   1.158       .  T
C690        C691   1.444       .  A
C690        C695   1.445       .  S
C691        C692   1.416       .  A
C691        C697   1.453       .  S
C692        C693   1.407       .  A
C693        C694   1.431       .  A
C693        C696   1.435       .  S
C694        C698   1.441       .  S
C695        N702   1.158       .  T
C696        N703   1.152       .  T
C697        N701   1.157   1_455  T
C698        N704   1.158       .  T
C699        N708   1.156       .  T
C700        N706   1.152       .  T
C709        C710   1.444       .  A
C709        C714   1.450       .  A
C709        C727   1.437       .  S
C710        C711   1.397       .  A
C710        C715   1.556       .  S
C711        C712   1.391       .  A
C711        C716   1.427       .  S
C712        C713   1.434       .  A
C712        C728   1.440       .  S
C713        C714   1.410       .  A
C714        C717   1.437       .  S
C715        C718   1.412       .  A
C715        C722   1.419       .  A
C716        N733   1.150       .  T
C717        N735   1.154       .  T
C718        C719   1.440       .  A
C718        C723   1.455       .  S
C719        C720   1.454       .  A
C719        C725   1.444       .  S
C720        C721   1.424       .  A
C721        C722   1.430       .  A
C721        C724   1.434       .  S
C722        C726   1.438       .  S
C723        N730   1.157       .  T
C724        N731   1.153       .  T
C725        N729   1.160   1_455  T
C726        N732   1.154       .  T
C727        N736   1.158       .  T
C728        N734   1.154       .  T
C737        C738   1.406       .  A
C737        C742   1.422       .  A
C737        C755   1.431       .  S
C738        C739   1.438       .  A
C738        C743   1.543       .  S
C739        C740   1.457       .  A
C739        C744   1.439       .  S
C740        C741   1.413       .  A
C740        C756   1.431       .  S
C741        C742   1.445       .  A
C742        C745   1.443       .  S
C743        C746   1.427       .  A
C743        C750   1.423       .  A
C744        N761   1.157       .  T
C745        N763   1.153       .  T
C746        C747   1.442       .  A
C746        C751   1.449       .  S
C747        C748   1.431       .  A
C747        C753   1.454       .  S
C748        C749   1.410       .  A
C749        C750   1.413       .  A
C749        C752   1.433       .  S
C750        C754   1.438       .  S
C751        N758   1.158       .  T
C752        N759   1.154       .  T
C753        N757   1.157       .  T
C754        N760   1.156       .  T
C755        N764   1.153       .  T
C756        N762   1.153       .  T
C765        C766   1.443       .  A
C765        C770   1.454       .  A
C765        C783   1.441   1_556  S
C766        C767   1.405       .  A
C766        C771   1.567       .  S
C767        C768   1.402       .  A
C767        C772   1.448       .  S
C768        C769   1.462       .  A
C768        C784   1.449       .  S
C769        C770   1.440       .  A
C770        C773   1.439   1_556  S
C771        C774   1.411       .  A
C771        C778   1.433   1_556  A
C772        N789   1.157       .  T
C773        N791   1.156       .  T
C774        C775   1.408       .  A
C774        C779   1.434       .  S
C775        C776   1.421       .  A
C775        C781   1.429       .  S
C776        C777   1.425       .  A
C777        C778   1.447   1_556  A
C777        C780   1.434   1_556  S
C778        C782   1.437       .  S
C779        N786   1.157       .  T
C780        N787   1.151   1_455  T
C781        N785   1.153       .  T
C782        N788   1.153       .  T
C783        N792   1.157       .  T
C784        N790   1.155       .  T
C793        C794   1.442       .  A
C793        C798   1.447       .  A
C793        C811   1.430       .  S
C794        C795   1.418       .  A
C794        C799   1.544       .  S
C795        C796   1.394       .  A
C795        C800   1.438       .  S
C796        C797   1.409       .  A
C796        C812   1.447       .  S
C797        C798   1.413       .  A
C798        C801   1.419       .  S
C799        C802   1.411       .  A
C799        C806   1.407       .  A
C800        N817   1.156       .  T
C801        N819   1.147       .  T
C802        C803   1.433       .  A
C802        C807   1.445       .  S
C803        C804   1.444       .  A
C803        C809   1.438       .  S
C804        C805   1.451       .  A
C805        C806   1.434       .  A
C805        C808   1.434       .  S
C806        C810   1.457       .  S
C807        N814   1.154       .  T
C808        N815   1.151       .  T
C809        N813   1.159       .  T
C810        N816   1.158       .  T
C811        N820   1.151       .  T
C812        N818   1.149       .  T
C821        C822   1.445       .  A
C821        C826   1.451       .  A
C821        C839   1.433   1_545  S
C822        C823   1.405       .  A
C822        C827   1.563       .  S
C823        C824   1.395       .  A
C823        C828   1.444       .  S
C824        C825   1.443       .  A
C824        C840   1.437       .  S
C825        C826   1.404       .  A
C826        C829   1.429   1_545  S
C827        C830   1.431       .  A
C827        C834   1.438       .  A
C828        N845   1.155       .  T
C829        N847   1.153       .  T
C830        C831   1.437       .  A
C830        C835   1.445       .  S
C831        C832   1.439       .  A
C831        C837   1.446       .  S
C832        C833   1.402       .  A
C833        C834   1.420       .  A
C833        C836   1.448       .  S
C834        C838   1.453       .  S
C835        N842   1.157       .  T
C836        N843   1.156   1_545  T
C837        N841   1.157       .  T
C838        N844   1.159       .  T
C839        N848   1.156       .  T
C840        N846   1.150       .  T
C849        C850   1.395       .  A
C849        C854   1.416       .  A
C849        C867   1.439       .  S
C850        C851   1.438       .  A
C850        C855   1.572       .  S
C851        C852   1.450       .  A
C851        C856   1.428       .  S
C852        C853   1.413       .  A
C852        C868   1.435       .  S
C853        C854   1.450       .  A
C854        C857   1.435       .  S
C855        C858   1.424       .  A
C855        C862   1.400       .  A
C856        N873   1.153       .  T
C857        N875   1.149       .  T
C858        C859   1.454       .  A
C858        C863   1.441       .  S
C859        C860   1.444       .  A
C859        C865   1.439       .  S
C860        C861   1.481       .  A
C861        C862   1.442       .  A
C861        C864   1.446       .  S
C862        C866   1.452       .  S
C863        N870   1.155       .  T
C864        N871   1.159       .  T
C865        N869   1.157       .  T
C866        N872   1.157       .  T
C867        N876   1.151       .  T
C868        N874   1.155       .  T
C877        C878   1.432       .  A
C877        C882   1.427       .  A
C877        C895   1.446       .  S
C878        C879   1.397       .  A
C878        C883   1.536       .  S
C879        C880   1.410       .  A
C879        C884   1.452       .  S
C880        C881   1.461       .  A
C880        C896   1.445       .  S
C881        C882   1.422       .  A
C882        C885   1.443       .  S
C883        C886   1.442       .  A
C883        C890   1.386       .  A
C884        N901   1.157       .  T
C885        N903   1.154       .  T
C886        C887   1.440       .  A
C886        C891   1.443       .  S
C887        C888   1.428       .  A
C887        C893   1.437       .  S
C888        C889   1.442       .  A
C889        C890   1.398       .  A
C889        C892   1.415       .  S
C890        C894   1.457       .  S
C891        N898   1.158       .  T
C892        N899   1.144       .  T
C893        N897   1.156       .  T
C894        N900   1.154       .  T
C895        N904   1.156       .  T
C896        N902   1.158       .  T
C905        C906   1.422       .  A
C905        C910   1.430       .  A
C905        C923   1.443       .  S
C906        C907   1.454       .  A
C906        C911   1.582       .  S
C907        C908   1.440       .  A
C907        C912   1.438       .  S
C908        C909   1.382       .  A
C908        C924   1.436       .  S
C909        C910   1.453       .  A
C910        C913   1.455       .  S
C911        C914   1.416       .  A
C911        C918   1.447       .  A
C912        N929   1.156       .  T
C913        N931   1.157       .  T
C914        C915   1.416       .  A
C914        C919   1.434       .  S
C915        C916   1.438       .  A
C915        C921   1.440       .  S
C916        C917   1.391       .  A
C917        C918   1.442       .  A
C917        C920   1.421       .  S
C918        C922   1.432       .  S
C919        N926   1.153       .  T
C920        N927   1.147       .  T
C921        N925   1.158       .  T
C922        N928   1.156       .  T
C923        N932   1.155       .  T
C924        N930   1.158       .  T
C933        C934   1.447       .  A
C933        C938   1.469       .  A
C933        C951   1.434   1_556  S
C934        C935   1.384       .  A
C934        C939   1.581       .  S
C935        C936   1.411       .  A
C935        C940   1.423       .  S
C936        C937   1.416       .  A
C936        C952   1.421       .  S
C937        C938   1.447       .  A
C938        C941   1.441   1_556  S
C939        C942   1.423       .  A
C939        C946   1.428       .  A
C940        N957   1.151       .  T
C941        N959   1.156       .  T
C942        C943   1.454       .  A
C942        C947   1.445       .  S
C943        C944   1.448       .  A
C943        C949   1.438       .  S
C944        C945   1.435       .  A
C945        C946   1.436       .  A
C945        C948   1.440       .  S
C946        C950   1.445       .  S
C947        N954   1.158       .  T
C948        N955   1.158       .  T
C949        N953   1.153       .  T
C950        N956   1.154       .  T
C951        N960   1.154       .  T
C952        N958   1.153       .  T
C961        C962   1.432       .  A
C961        C966   1.438       .  A
C961        C979   1.442       .  S
C962        C963   1.400       .  A
C962        C967   1.536       .  S
C963        C964   1.379       .  A
C963        C968   1.426       .  S
C964        C965   1.434       .  A
C964        C980   1.447       .  S
C965        C966   1.424       .  A
C966        C969   1.439       .  S
C967        C970   1.434       .  A
C967        C974   1.413       .  A
C968        N985   1.152       .  T
C969        N987   1.153       .  T
C970        C971   1.427       .  A
C970        C975   1.437       .  S
C971        C972   1.379       .  A
C971        C977   1.427       .  S
C972        C973   1.444       .  A
C973        C974   1.421       .  A
C973        C976   1.437       .  S
C974        C978   1.451       .  S
C975        N982   1.158       .  T
C976        N983   1.151       .  T
C977        N981   1.152       .  T
C978        N984   1.157       .  T
C979        N988   1.156       .  T
C980        N986   1.157       .  T
C989        C990   1.430       .  A
C989        C994   1.440       .  A
C989       C1007   1.452       .  S
C990        C991   1.427       .  A
C990        C995   1.586       .  S
C991        C992   1.442       .  A
C991        C996   1.442       .  S
C992        C993   1.438       .  A
C992       C1008   1.443       .  S
C993        C994   1.443       .  A
C994        C997   1.439       .  S
C995        C998   1.411       .  A
C995       C1002   1.433       .  A
C996       N1013   1.156       .  T
C997       N1015   1.158       .  T
C998        C999   1.414       .  A
C998       C1003   1.423       .  S
C999       C1000   1.413       .  A
C999       C1005   1.435       .  S
C1000      C1001   1.441       .  A
C1001      C1002   1.446       .  A
C1001      C1004   1.439       .  S
C1002      C1006   1.439       .  S
C1003      N1010   1.150       .  T
C1004      N1011   1.156       .  T
C1005      N1009   1.157       .  T
C1006      N1012   1.156       .  T
C1007      N1016   1.156       .  T
C1008      N1014   1.156   1_455  T
C1017      C1018   1.425       .  A
C1017      C1022   1.438       .  A
C1017      C1035   1.431       .  S
C1018      C1019   1.447   1_455  A
C1018      C1023   1.589       .  S
C1019      C1020   1.464       .  A
C1019      C1024   1.437       .  S
C1020      C1021   1.371   1_655  A
C1020      C1036   1.436       .  S
C1021      C1022   1.430       .  A
C1022      C1025   1.440       .  S
C1023      C1026   1.409       .  A
C1023      C1030   1.433   1_455  A
C1024      N1041   1.158       .  T
C1025      N1043   1.157   1_455  T
C1026      C1027   1.407       .  A
C1026      C1031   1.446       .  S
C1027      C1028   1.445       .  A
C1027      C1033   1.438       .  S
C1028      C1029   1.412   1_455  A
C1029      C1030   1.457       .  A
C1029      C1032   1.434       .  S
C1030      C1034   1.432       .  S
C1031      N1038   1.160       .  T
C1032      N1039   1.153       .  T
C1033      N1037   1.148       .  T
C1034      N1040   1.154       .  T
C1035      N1044   1.150       .  T
C1036      N1042   1.158       .  T
C1045      C1046   1.386       .  A
C1045      C1050   1.414       .  A
C1045      C1063   1.446       .  S
C1046      C1047   1.435       .  A
C1046      C1051   1.548       .  S
C1047      C1048   1.436       .  A
C1047      C1052   1.435       .  S
C1048      C1049   1.418       .  A
C1048      C1064   1.433       .  S
C1049      C1050   1.454       .  A
C1050      C1053   1.428       .  S
C1051      C1054   1.406       .  A
C1051      C1058   1.443       .  A
C1052      N1069   1.156       .  T
C1053      N1071   1.148       .  T
C1054      C1055   1.416       .  A
C1054      C1059   1.443       .  S
C1055      C1056   1.445       .  A
C1055      C1061   1.441       .  S
C1056      C1057   1.396       .  A
C1057      C1058   1.417       .  A
C1057      C1060   1.428       .  S
C1058      C1062   1.441       .  S
C1059      N1066   1.155       .  T
C1060      N1067   1.153       .  T
C1061      N1065   1.157   1_455  T
C1062      N1068   1.157       .  T
C1063      N1072   1.150       .  T
C1064      N1070   1.152       .  T
C1073      C1074   1.397       .  A
C1073      C1078   1.383       .  A
C1073      C1091   1.435       .  S
C1074      C1075   1.451       .  A
C1074      C1079   1.549       .  S
C1075      C1076   1.442       .  A
C1075      C1080   1.434       .  S
C1076      C1077   1.405       .  A
C1076      C1092   1.432       .  S
C1077      C1078   1.421       .  A
C1078      C1081   1.438       .  S
C1079      C1082   1.438       .  A
C1079      C1086   1.412       .  A
C1080      N1097   1.156       .  T
C1081      N1099   1.152       .  T
C1082      C1083   1.430       .  A
C1082      C1087   1.435       .  S
C1083      C1084   1.398       .  A
C1083      C1089   1.445       .  S
C1084      C1085   1.452       .  A
C1085      C1086   1.433       .  A
C1085      C1088   1.434       .  S
C1086      C1090   1.451       .  S
C1087      N1094   1.157       .  T
C1088      N1095   1.155       .  T
C1089      N1093   1.155       .  T
C1090      N1096   1.157       .  T
C1091      N1100   1.155       .  T
C1092      N1098   1.149       .  T
C1101      C1102   1.426       .  A
C1101      C1106   1.434       .  A
C1101      C1119   1.444       .  S
C1102      C1103   1.469       .  A
C1102      C1107   1.595       .  S
C1103      C1104   1.437       .  A
C1103      C1108   1.438       .  S
C1104      C1105   1.378       .  A
C1104      C1120   1.442       .  S
C1105      C1106   1.436       .  A
C1106      C1109   1.432       .  S
C1107      C1110   1.419       .  A
C1107      C1114   1.462       .  A
C1108      N1125   1.158       .  T
C1109      N1127   1.150   1_455  T
C1110      C1111   1.427       .  A
C1110      C1115   1.433       .  S
C1111      C1112   1.431       .  A
C1111      C1117   1.446       .  S
C1112      C1113   1.395       .  A
C1113      C1114   1.443       .  A
C1113      C1116   1.439       .  S
C1114      C1118   1.438       .  S
C1115      N1122   1.152       .  T
C1116      N1123   1.154       .  T
C1117      N1121   1.156       .  T
C1118      N1124   1.156       .  T
C1119      N1128   1.158       .  T
C1120      N1126   1.154       .  T
C1129      C1130   1.442       .  A
C1129      C1134   1.442       .  A
C1129      C1147   1.440       .  S
C1130      C1131   1.401       .  A
C1130      C1135   1.554       .  S
C1131      C1132   1.411       .  A
C1131      C1136   1.441       .  S
C1132      C1133   1.418       .  A
C1132      C1148   1.396       .  S
C1133      C1134   1.412       .  A
C1134      C1137   1.414       .  S
C1135      C1138   1.408       .  A
C1135      C1142   1.439       .  A
C1136      N1153   1.153       .  T
C1137      N1155   1.146       .  T
C1138      C1139   1.416       .  A
C1138      C1143   1.446       .  S
C1139      C1140   1.451       .  A
C1139      C1145   1.445       .  S
C1140      C1141   1.404       .  A
C1141      C1142   1.431       .  A
C1141      C1144   1.437       .  S
C1142      C1146   1.440       .  S
C1143      N1150   1.155       .  T
C1144      N1151   1.155       .  T
C1145      N1149   1.159       .  T
C1146      N1152   1.157       .  T
C1147      N1156   1.156       .  T
C1148      N1154   1.133       .  T
C1157      C1158   1.440       .  A
C1157      C1162   1.432       .  A
C1157      C1175   1.438       .  S
C1158      C1159   1.429       .  A
C1158      C1163   1.569       .  S
C1159      C1160   1.439       .  A
C1159      C1164   1.442       .  S
C1160      C1161   1.441       .  A
C1160      C1176   1.446       .  S
C1161      C1162   1.365       .  A
C1162      C1165   1.429       .  S
C1163      C1166   1.469       .  A
C1163      C1170   1.407       .  A
C1164      N1181   1.157       .  T
C1165      N1183   1.151       .  T
C1166      C1167   1.453       .  A
C1166      C1171   1.433       .  S
C1167      C1168   1.430       .  A
C1167      C1173   1.430       .  S
C1168      C1169   1.423       .  A
C1169      C1170   1.393       .  A
C1169      C1172   1.436       .  S
C1170      C1174   1.446       .  S
C1171      N1178   1.158       .  T
C1172      N1179   1.151       .  T
C1173      N1177   1.155       .  T
C1174      N1180   1.158       .  T
C1175      N1184   1.158       .  T
C1176      N1182   1.160       .  T
C1185      C1186   1.432       .  A
C1185      C1190   1.436       .  A
C1185      C1203   1.454       .  S
C1186      C1187   1.456       .  A
C1186      C1191   1.579       .  S
C1187      C1188   1.421       .  A
C1187      C1192   1.442       .  S
C1188      C1189   1.385       .  A
C1188      C1204   1.436       .  S
C1189      C1190   1.427       .  A
C1190      C1193   1.442       .  S
C1191      C1194   1.454   1_556  A
C1191      C1198   1.428       .  A
C1192      N1209   1.158   1_556  T
C1193      N1211   1.155       .  T
C1194      C1195   1.428   1_554  A
C1194      C1199   1.433       .  S
C1195      C1196   1.378       .  A
C1195      C1201   1.431   1_556  S
C1196      C1197   1.419       .  A
C1197      C1198   1.419       .  A
C1197      C1200   1.445       .  S
C1198      C1202   1.431       .  S
C1199      N1206   1.155       .  T
C1200      N1207   1.153       .  T
C1201      N1205   1.149       .  T
C1202      N1208   1.152       .  T
C1203      N1212   1.158       .  T
C1204      N1210   1.155   1_556  T
C1213      C1214   1.439   1_655  A
C1213      C1218   1.458       .  A
C1213      C1231   1.432       .  S
C1214      C1215   1.398       .  A
C1214      C1219   1.569       .  S
C1215      C1216   1.420       .  A
C1215      C1220   1.433       .  S
C1216      C1217   1.431       .  A
C1216      C1232   1.437       .  S
C1217      C1218   1.424   1_455  A
C1218      C1221   1.428       .  S
C1219      C1222   1.440   1_455  A
C1219      C1226   1.393       .  A
C1220      N1237   1.156       .  T
C1221      N1239   1.153       .  T
C1222      C1223   1.457   1_655  A
C1222      C1227   1.438       .  S
C1223      C1224   1.422       .  A
C1223      C1229   1.434   1_455  S
C1224      C1225   1.452       .  A
C1225      C1226   1.418       .  A
C1225      C1228   1.436       .  S
C1226      C1230   1.441       .  S
C1227      N1234   1.156       .  T
C1228      N1235   1.152       .  T
C1229      N1233   1.156       .  T
C1230      N1236   1.152       .  T
C1231      N1240   1.155       .  T
C1232      N1238   1.157       .  T
C1241      C1242   1.397       .  A
C1241      C1246   1.418       .  A
C1241      C1259   1.452       .  S
C1242      C1243   1.426       .  A
C1242      C1247   1.513       .  S
C1243      C1244   1.408       .  A
C1243      C1248   1.435       .  S
C1244      C1245   1.405       .  A
C1244      C1260   1.437       .  S
C1245      C1246   1.462       .  A
C1246      C1249   1.442       .  S
C1247      C1250   1.335       .  A
C1247      C1254   1.410       .  A
C1248      N1265   1.154       .  T
C1249      N1267   1.158       .  T
C1250      C1251   1.376       .  A
C1250      C1255   1.445       .  S
C1251      C1252   1.469       .  A
C1251      C1257   1.422       .  S
C1252      C1253   1.453       .  A
C1253      C1254   1.458       .  A
C1253      C1256   1.430       .  S
C1254      C1258   1.437       .  S
C1255      N1262   1.154       .  T
C1256      N1263   1.152       .  T
C1257      N1261   1.153       .  T
C1258      N1264   1.156       .  T
C1259      N1268   1.157       .  T
C1260      N1266   1.156       .  T
C1269      C1270   1.421       .  A
C1269      C1274   1.452       .  A
C1269      C1287   1.438       .  S
C1270      C1271   1.397       .  A
C1270      C1275   1.553       .  S
C1271      C1272   1.422       .  A
C1271      C1276   1.444       .  S
C1272      C1273   1.467       .  A
C1272      C1288   1.452       .  S
C1273      C1274   1.442       .  A
C1274      C1277   1.440       .  S
C1275      C1278   1.443       .  A
C1275      C1282   1.399       .  A
C1276      N1293   1.153       .  T
C1277      N1295   1.154       .  T
C1278      C1279   1.442       .  A
C1278      C1283   1.434       .  S
C1279      C1280   1.404       .  A
C1279      C1285   1.439       .  S
C1280      C1281   1.452       .  A
C1281      C1282   1.406       .  A
C1281      C1284   1.457       .  S
C1282      C1286   1.442       .  S
C1283      N1290   1.156       .  T
C1284      N1291   1.156       .  T
C1285      N1289   1.157       .  T
C1286      N1292   1.156       .  T
C1287      N1296   1.154       .  T
C1288      N1294   1.160       .  T
C1297      C1298   1.460       .  A
C1297      C1302   1.438       .  A
C1297      C1315   1.436       .  S
C1298      C1299   1.413       .  A
C1298      C1303   1.592       .  S
C1299      C1300   1.425       .  A
C1299      C1304   1.441       .  S
C1300      C1301   1.449       .  A
C1300      C1316   1.446       .  S
C1301      C1302   1.399       .  A
C1302      C1305   1.444   1_545  S
C1303      C1306   1.410       .  A
C1303      C1310   1.456       .  A
C1304      N1321   1.152       .  T
C1305      N1323   1.155       .  T
C1306      C1307   1.430       .  A
C1306      C1311   1.439       .  S
C1307      C1308   1.462       .  A
C1307      C1313   1.455       .  S
C1308      C1309   1.400       .  A
C1309      C1310   1.448       .  A
C1309      C1312   1.432   1_545  S
C1310      C1314   1.439   1_545  S
C1311      N1318   1.153       .  T
C1312      N1319   1.155       .  T
C1313      N1317   1.157       .  T
C1314      N1320   1.157       .  T
C1315      N1324   1.157   1_545  T
C1316      N1322   1.158       .  T
C1325      C1326   1.435   1_655  A
C1325      C1330   1.442   1_655  A
C1325      C1343   1.437       .  S
C1326      C1327   1.407       .  A
C1326      C1331   1.565       .  S
C1327      C1328   1.437       .  A
C1327      C1332   1.453       .  S
C1328      C1329   1.456       .  A
C1328      C1344   1.442       .  S
C1329      C1330   1.421       .  A
C1330      C1333   1.448   1_455  S
C1331      C1334   1.461   1_455  A
C1331      C1338   1.416       .  A
C1332      N1349   1.158       .  T
C1333      N1351   1.155       .  T
C1334      C1335   1.461   1_655  A
C1334      C1339   1.441       .  S
C1335      C1336   1.434       .  A
C1335      C1341   1.438   1_455  S
C1336      C1337   1.431       .  A
C1337      C1338   1.401       .  A
C1337      C1340   1.465       .  S
C1338      C1342   1.441       .  S
C1339      N1346   1.156       .  T
C1340      N1347   1.155       .  T
C1341      N1345   1.156       .  T
C1342      N1348   1.156       .  T
C1343      N1352   1.156       .  T
C1344      N1350   1.159   1_455  T
C1353      C1354   1.388       .  A
C1353      C1358   1.412       .  A
C1353      C1371   1.431       .  S
C1354      C1355   1.427       .  A
C1354      C1359   1.565       .  S
C1355      C1356   1.454       .  A
C1355      C1360   1.426       .  S
C1356      C1357   1.427       .  A
C1356      C1372   1.425       .  S
C1357      C1358   1.440       .  A
C1358      C1361   1.443       .  S
C1359      C1362   1.414       .  A
C1359      C1366   1.427       .  A
C1360      N1377   1.153       .  T
C1361      N1379   1.158       .  T
C1362      C1363   1.434       .  A
C1362      C1367   1.443       .  S
C1363      C1364   1.437       .  A
C1363      C1369   1.446       .  S
C1364      C1365   1.425       .  A
C1365      C1366   1.442       .  A
C1365      C1368   1.450       .  S
C1366      C1370   1.437       .  S
C1367      N1374   1.154       .  T
C1368      N1375   1.156       .  T
C1369      N1373   1.159       .  T
C1370      N1376   1.156       .  T
C1371      N1380   1.155       .  T
C1372      N1378   1.151       .  T
C1381      C1382   1.423       .  A
C1381      C1386   1.421       .  A
C1381      C1399   1.449   1_545  S
C1382      C1383   1.415       .  A
C1382      C1387   1.549       .  S
C1383      C1384   1.430       .  A
C1383      C1388   1.453       .  S
C1384      C1385   1.447       .  A
C1384      C1400   1.439       .  S
C1385      C1386   1.411       .  A
C1386      C1389   1.427       .  S
C1387      C1390   1.428   1_545  A
C1387      C1394   1.420       .  A
C1388      N1405   1.157       .  T
C1389      N1407   1.149   1_455  T
C1390      C1391   1.422   1_565  A
C1390      C1395   1.428       .  S
C1391      C1392   1.404       .  A
C1391      C1397   1.436   1_545  S
C1392      C1393   1.429       .  A
C1393      C1394   1.404       .  A
C1393      C1396   1.449       .  S
C1394      C1398   1.441       .  S
C1395      N1402   1.150       .  T
C1396      N1403   1.158       .  T
C1397      N1401   1.149       .  T
C1398      N1404   1.154       .  T
C1399      N1408   1.157       .  T
C1400      N1406   1.155       .  T
C1409      C1410   1.435       .  A
C1409      C1414   1.438       .  A
C1409      C1427   1.439       .  S
C1410      C1411   1.411       .  A
C1410      C1415   1.548       .  S
C1411      C1412   1.418       .  A
C1411      C1416   1.449       .  S
C1412      C1413   1.442       .  A
C1412      C1428   1.448       .  S
C1413      C1414   1.397       .  A
C1414      C1417   1.443       .  S
C1415      C1418   1.430       .  A
C1415      C1422   1.396       .  A
C1416      N1433   1.157       .  T
C1417      N1435   1.157       .  T
C1418      C1419   1.437       .  A
C1418      C1423   1.439       .  S
C1419      C1420   1.412       .  A
C1419      C1425   1.410       .  S
C1420      C1421   1.449       .  A
C1421      C1422   1.411       .  A
C1421      C1424   1.437       .  S
C1422      C1426   1.444       .  S
C1423      N1430   1.157       .  T
C1424      N1431   1.158       .  T
C1425      N1429   1.148       .  T
C1426      N1432   1.156       .  T
C1427      N1436   1.156       .  T
C1428      N1434   1.157       .  T
C1437      C1438   1.402       .  A
C1437      C1442   1.410       .  A
C1437      C1455   1.436       .  S
C1438      C1439   1.446       .  A
C1438      C1443   1.549       .  S
C1439      C1440   1.425       .  A
C1439      C1444   1.442       .  S
C1440      C1441   1.389       .  A
C1440      C1456   1.437       .  S
C1441      C1442   1.439       .  A
C1442      C1445   1.440       .  S
C1443      C1446   1.383       .  A
C1443      C1450   1.457       .  A
C1444      N1461   1.157       .  T
C1445      N1463   1.157       .  T
C1446      C1447   1.384       .  A
C1446      C1451   1.435       .  S
C1447      C1448   1.445       .  A
C1447      C1453   1.440       .  S
C1448      C1449   1.419       .  A
C1449      C1450   1.449       .  A
C1449      C1452   1.444       .  S
C1450      C1454   1.440       .  S
C1451      N1458   1.148       .  T
C1452      N1459   1.156       .  T
C1453      N1457   1.151       .  T
C1454      N1460   1.158       .  T
C1455      N1464   1.152       .  T
C1456      N1462   1.153       .  T
C1465      C1466   1.439       .  A
C1465      C1470   1.437       .  A
C1465      C1483   1.445       .  S
C1466      C1467   1.400       .  A
C1466      C1471   1.553       .  S
C1467      C1468   1.415       .  A
C1467      C1472   1.447       .  S
C1468      C1469   1.474       .  A
C1468      C1484   1.458       .  S
C1469      C1470   1.421       .  A
C1470      C1473   1.440       .  S
C1471      C1474   1.419       .  A
C1471      C1478   1.448       .  A
C1472      N1489   1.151       .  T
C1473      N1491   1.154       .  T
C1474      C1475   1.421       .  A
C1474      C1479   1.446       .  S
C1475      C1476   1.439       .  A
C1475      C1481   1.450       .  S
C1476      C1477   1.398       .  A
C1477      C1478   1.410       .  A
C1477      C1480   1.436       .  S
C1478      C1482   1.449       .  S
C1479      N1486   1.157       .  T
C1480      N1487   1.154       .  T
C1481      N1485   1.156       .  T
C1482      N1488   1.158       .  T
C1483      N1492   1.158       .  T
C1484      N1490   1.156       .  T
