geometry optimzed in LAMMPS
_audit_creation_date              2020-11-30 
_audit_creation_method            'lammps2cif' 
_symmetry_space_group_name_H-M    'P1' 
_symmetry_Int_Tables_number       1 
_symmetry_cell_setting            triclinic 
loop_ 
_symmetry_equiv_pos_as_xyz 
  x,y,z 
_cell_length_a                    46.33105453 
_cell_length_b                    46.330783920000826 
_cell_length_c                    46.33097138270522 
_cell_angle_alpha                 90.00003853429003 
_cell_angle_beta                  90.00061796030104 
_cell_angle_gamma                 90.00001080847485 
loop_ 
_atom_site_label 
_atom_site_type_symbol 
_atom_site_fract_x 
_atom_site_fract_y 
_atom_site_fract_z 
_atom_site_charge 
O1          O  0.00022115  0.04754079  0.08246509    -0.79100
O2          O  0.99978667  0.04753517  0.41762717    -0.80600
O3          O  0.04742757  0.08253601  0.00024805    -0.77700
O4          O  0.45257615  0.08253793  0.99984297    -0.76100
O5          O  0.41758698  0.04754474  0.99985049    -0.77800
O6          O  0.08241854  0.04754471  0.00024155    -0.78800
O7          O  0.99978034  0.08252918  0.45261567    -0.80100
O8          O  0.00023458  0.08253271  0.04747436    -0.80400
Eu9        Eu  0.00000184  0.05874180  0.00004603     2.39200
O10         O  0.47066873  0.02944393  0.47072204    -0.87900
O11         O  0.02933495  0.02944548  0.02937134    -0.91500
C12         C  0.00025928  0.07404960  0.07398296     1.03200
C13         C  0.99975521  0.07404434  0.42610761     1.03000
C14         C  0.07393603  0.07405334  0.00027219     1.02900
C15         C  0.42606778  0.07405410  0.99981871     1.00800
H16         H  0.04141978  0.04154217  0.45861359     0.30600
O17         O  0.02939231  0.02951376  0.47064585    -1.00300
H18         H  0.45858461  0.04154310  0.04147907     0.30600
O19         O  0.47061202  0.02951393  0.02944739    -1.02800
O20         O  0.00020782  0.45268593  0.41763367    -0.80100
O21         O  0.99976994  0.45268805  0.08246440    -0.79600
O22         O  0.08241420  0.99990162  0.45260315    -0.78000
O23         O  0.41758258  0.00032460  0.45263676    -0.81400
O24         O  0.41758824  0.99989518  0.04748727    -0.79200
O25         O  0.08242571  0.00032552  0.04745537    -0.77900
O26         O  0.04742825  0.41770590  0.99983708    -0.79400
O27         O  0.45257260  0.41769371  0.00025721    -0.81300
O28         O  0.08241704  0.45269891  0.99983952    -0.78100
O29         O  0.41757923  0.45268310  0.00024798    -0.80700
O30         O  0.04741760  0.99989160  0.41761829    -0.76500
O31         O  0.04744155  0.00031378  0.08245347    -0.76500
O32         O  0.45258607  0.99988933  0.08247141    -0.76100
O33         O  0.45256860  0.00032026  0.41764055    -0.79200
O34         O  0.00021001  0.41769476  0.45262464    -0.79100
O35         O  0.99977783  0.41769622  0.04747392    -0.77400
Eu36       Eu  0.99999786  0.00011278  0.44142504     2.39800
Eu37       Eu  0.00000785  0.00011528  0.05867064     2.39600
Eu38       Eu  0.05862545  0.00011848  0.00003262     2.38400
Eu39       Eu  0.44137902  0.00011670  0.00006078     2.39900
Eu40       Eu  0.99999563  0.44149085  0.00004865     2.39800
O41         O  0.47065750  0.47078279  0.02937517    -0.91800
O42         O  0.02932869  0.47078077  0.47071633    -0.90700
C43         C  0.00023746  0.42617721  0.42611617     1.03400
C44         C  0.99974452  0.42617904  0.07398239     1.02100
C45         C  0.07392785  0.99986617  0.42609564     1.01500
C46         C  0.42606154  0.00034978  0.42612714     1.03500
C47         C  0.42607608  0.99986021  0.07399401     1.02400
C48         C  0.07394892  0.00034578  0.07396585     1.01200
C49         C  0.07393655  0.42619007  0.99980880     1.01300
C50         C  0.42606371  0.42617472  0.00028015     1.03900
H51         H  0.04141041  0.45869445  0.04147486     0.31300
O52         O  0.02938192  0.47072323  0.02944419    -1.04000
H53         H  0.45857641  0.45869216  0.45862443     0.33300
O54         O  0.47060355  0.47072182  0.47065483    -1.06500
O55         O  0.00021637  0.20268312  0.16763433    -0.79100
O56         O  0.99978954  0.20268906  0.33246801    -0.80600
O57         O  0.04742741  0.16769494  0.24983810    -0.77700
O58         O  0.45257601  0.16769789  0.25025861    -0.76100
O59         O  0.41758496  0.20268913  0.25025574    -0.77800
O60         O  0.08241799  0.20268600  0.24983617    -0.78800
O61         O  0.99979554  0.16769887  0.29747590    -0.80100
O62         O  0.00021827  0.16769307  0.20262672    -0.80400
Eu63       Eu  0.00000086  0.19149070  0.25004908     2.39200
O64         O  0.47066322  0.22078014  0.27937943    -0.87900
O65         O  0.02933105  0.22077878  0.22071178    -0.91500
C66         C  0.00024873  0.17617465  0.17611800     1.03200
C67         C  0.99976676  0.17618059  0.32398470     1.03000
C68         C  0.07393627  0.17617701  0.24980916     1.02900
C69         C  0.42606778  0.17618075  0.25028546     1.00800
H70         H  0.04141906  0.20869427  0.29147088     0.30600
O71         O  0.02938940  0.22072292  0.27944159    -1.00300
H72         H  0.45857997  0.20869144  0.20862579     0.30600
O73         O  0.47060848  0.22072138  0.22065490    -1.02800
O74         O  0.00020849  0.29753878  0.33246721    -0.80100
O75         O  0.99978309  0.29754198  0.16763197    -0.79600
O76         O  0.08241286  0.25032359  0.29747178    -0.78000
O77         O  0.41757327  0.24990901  0.29746364    -0.81400
O78         O  0.41758117  0.25032714  0.20262021    -0.79200
O79         O  0.08241062  0.24989365  0.20261619    -0.77900
O80         O  0.04742560  0.33252882  0.25026732    -0.79400
O81         O  0.45256894  0.33252823  0.24983142    -0.81300
O82         O  0.08241470  0.29753567  0.25026325    -0.78100
O83         O  0.41757740  0.29753786  0.24982034    -0.80700
O84         O  0.04742234  0.25032740  0.33246337    -0.76500
O85         O  0.04742055  0.24989980  0.16762387    -0.76500
O86         O  0.45257088  0.25032231  0.16762846    -0.76100
O87         O  0.45256219  0.24990124  0.33245704    -0.79600
O88         O  0.00021038  0.33253037  0.29747650    -0.79100
O89         O  0.99978438  0.33253250  0.20262408    -0.77400
Eu90       Eu  0.99999402  0.25011372  0.30867175     2.39800
Eu91       Eu  0.99999790  0.25011323  0.19142195     2.39600
Eu92       Eu  0.05862029  0.25011088  0.25004548     2.38400
Eu93       Eu  0.44137604  0.25011513  0.25004396     2.39900
Eu94       Eu  0.99999765  0.30873740  0.25004905     2.39800
O95         O  0.47066737  0.27944753  0.22071284    -0.91800
O96         O  0.02932813  0.27944225  0.27937894    -0.90700
C97         C  0.00023871  0.32404758  0.32398515     1.03400
C98         C  0.99975467  0.32405058  0.17611524     1.02100
C99         C  0.07393095  0.25035443  0.32398049     1.01500
C100        C  0.42605389  0.24987721  0.32397273     1.03500
C101        C  0.42606257  0.25035323  0.17611171     1.02400
C102        C  0.07392885  0.24986700  0.17610704     1.01200
C103        C  0.07393388  0.32404480  0.25029549     1.01300
C104        C  0.42606004  0.32404635  0.24979496     1.03900
H105        H  0.04141887  0.29153483  0.20862654     0.31300
O106        O  0.02938907  0.27950539  0.22065533    -1.04000
H107        H  0.45857258  0.29153776  0.29146815     0.33300
O108        O  0.47060303  0.27950796  0.27944018    -1.06500
O109        O  0.33242210  0.49990312  0.20263346    -0.79100
O110        O  0.16758351  0.50032276  0.20260946    -0.80600
O111        O  0.25022303  0.45269529  0.16762428    -0.77700
O112        O  0.24980897  0.04753993  0.16762556    -0.76100
O113        O  0.24978949  0.08253096  0.20261618    -0.77800
O114        O  0.25022496  0.41770364  0.20261481    -0.78800
O115        O  0.20258044  0.50033338  0.16762449    -0.80100
O116        O  0.29743486  0.49990868  0.16763839    -0.80400
Eu117      Eu  0.25000457  0.50011733  0.19142333     2.39200
O118        O  0.22067824  0.02944879  0.22070369    -0.87900
O119        O  0.27933582  0.47078429  0.22071582    -0.91500
C120        C  0.32394251  0.49987699  0.17612392     1.03200
C121        C  0.17607034  0.50035729  0.17610229     1.03000
C122        C  0.25025482  0.42618661  0.17610624     1.02900
C123        C  0.24976815  0.07404862  0.17610746     1.00800
H124        H  0.20858364  0.45869442  0.20862071     0.30600
O125        O  0.22061022  0.47072437  0.22065162    -1.00300
H126        H  0.29143794  0.04153765  0.20863296     0.30600
O127        O  0.27940815  0.02950714  0.22066051    -1.02800
O128        O  0.16756605  0.49990216  0.29746053    -0.80100
O129        O  0.33240190  0.50033380  0.29748553    -0.79600
O130        O  0.20257879  0.41769263  0.25025452    -0.78000
O131        O  0.20258083  0.08253081  0.24983678    -0.81400
O132        O  0.29743081  0.08253382  0.25025436    -0.79200
O133        O  0.29742859  0.41770100  0.24983458    -0.77900
O134        O  0.24977085  0.45268866  0.33246313    -0.79400
O135        O  0.25021267  0.04754419  0.33245716    -0.81300
O136        O  0.24978353  0.41769867  0.29747082    -0.78100
O137        O  0.25021458  0.08253465  0.29746542    -0.80700
O138        O  0.16758471  0.45268105  0.25025634    -0.76500
O139        O  0.33241755  0.45269407  0.24983876    -0.76500
O140        O  0.33242464  0.04754533  0.25027128    -0.76100
O141        O  0.16759089  0.04753877  0.24982671    -0.79600
O142        O  0.20255448  0.49990677  0.33245435    -0.79100
O143        O  0.29740698  0.50033217  0.33247253    -0.77400
Eu144      Eu  0.19137043  0.50011342  0.25003914     2.39800
Eu145      Eu  0.30861952  0.50011812  0.25005412     2.39600
Eu146      Eu  0.25000112  0.44149232  0.25004447     2.38400
Eu147      Eu  0.25000722  0.05873722  0.25004281     2.39900
Eu148      Eu  0.24998569  0.50011509  0.30866902     2.39800
O149        O  0.27933773  0.02945041  0.27938420    -0.91800
O150        O  0.22066014  0.47078029  0.27937293    -0.90700
C151        C  0.17604625  0.49987647  0.32397013     1.03400
C152        C  0.32391648  0.50036273  0.32399299     1.02100
C153        C  0.17606947  0.42617270  0.25028549     1.01500
C154        C  0.17607232  0.07404794  0.24980527     1.03500
C155        C  0.32393985  0.07405318  0.25029131     1.02400
C156        C  0.32393673  0.42618480  0.24980695     1.01200
C157        C  0.24974723  0.42618012  0.32397980     1.01300
C158        C  0.25024111  0.07405287  0.32397411     1.03900
H159        H  0.29141410  0.45869618  0.29147340     0.31300
O160        O  0.27938581  0.47072484  0.27944268    -1.04000
H161        H  0.20858550  0.04153084  0.29145706     0.33300
O162        O  0.22061623  0.02950135  0.27942915    -1.06500
O163        O  0.20256894  0.16770424  0.50025662    -0.79100
O164        O  0.20257065  0.33253386  0.49982758    -0.80600
O165        O  0.16758082  0.24990419  0.04747196    -0.77700
O166        O  0.16758142  0.25033455  0.45261729    -0.76100
O167        O  0.20257455  0.25032852  0.41762865    -0.77800
O168        O  0.20257004  0.24990277  0.08246506    -0.78800
O169        O  0.16757752  0.29754481  0.49983240    -0.80100
O170        O  0.16757735  0.20269481  0.50025705    -0.80400
Eu171      Eu  0.19137267  0.25011923  0.50004441     2.39200
O172        O  0.22066717  0.27944818  0.47071247    -0.87900
O173        O  0.22066256  0.22078592  0.02937675    -0.91500
C174        C  0.17606044  0.17618643  0.50028575     1.03200
C175        C  0.17606140  0.32405312  0.49980039     1.03000
C176        C  0.17606206  0.24987343  0.07398114     1.02900
C177        C  0.17606534  0.25036024  0.42610925     1.00800
H178        H  0.20857344  0.29154096  0.04146547     0.30600
O179        O  0.22060326  0.27951118  0.02943703    -1.00300
H180        H  0.20857425  0.20869616  0.45862194     0.30600
O181        O  0.22060328  0.22072526  0.47065191    -1.02800
O182        O  0.29742812  0.33252748  0.50025542    -0.80100
O183        O  0.29741921  0.16769765  0.49983325    -0.79600
O184        O  0.25020266  0.29754630  0.08246076    -0.78000
O185        O  0.24978785  0.29753863  0.41762786    -0.81400
O186        O  0.25021129  0.20268948  0.41762806    -0.79200
O187        O  0.24977407  0.20268793  0.08245850    -0.77900
O188        O  0.33240903  0.25032667  0.04748178    -0.79400
O189        O  0.33241785  0.24990219  0.45262345    -0.81300
O190        O  0.29741553  0.25032835  0.08247014    -0.78100
O191        O  0.29742655  0.24990069  0.41763220    -0.80700
O192        O  0.25020578  0.33253694  0.04746906    -0.76500
O193        O  0.24977549  0.16769742  0.04746676    -0.76500
O194        O  0.25020567  0.16769831  0.45261857    -0.76100
O195        O  0.24977900  0.33253132  0.45261739    -0.79600
O196        O  0.33241994  0.29753670  0.50026293    -0.79100
O197        O  0.33241278  0.20268623  0.49984142    -0.77400
Eu198      Eu  0.24999775  0.30874020  0.50004501     2.39800
Eu199      Eu  0.24999553  0.19149489  0.50004422     2.39600
Eu200      Eu  0.24999349  0.25011800  0.05866973     2.38400
Eu201      Eu  0.25000057  0.25011463  0.44142389     2.39900
Eu202      Eu  0.30862242  0.25011463  0.50005073     2.39800
O203        O  0.27933400  0.22078251  0.47071484    -0.91800
O204        O  0.27932939  0.27944981  0.02938058    -0.90700
C205        C  0.32393685  0.32404489  0.50028773     1.03400
C206        C  0.32392842  0.17617800  0.49980887     1.02100
C207        C  0.25023330  0.32405493  0.07397778     1.01500
C208        C  0.24975279  0.32404763  0.42610908     1.03500
C209        C  0.25023597  0.17618061  0.42610979     1.02400
C210        C  0.24974428  0.17617918  0.07397543     1.01200
C211        C  0.32392460  0.25035606  0.07398980     1.01300
C212        C  0.32393515  0.24987336  0.42611443     1.03900
H213        H  0.29141357  0.20869506  0.04147023     0.31300
O214        O  0.27938625  0.22072526  0.02943990    -1.04000
H215        H  0.29142130  0.29153611  0.45862750     0.33300
O216        O  0.27939173  0.27950699  0.47065686    -1.06500
C217        C  0.24982652  0.09594476  0.15421019    -0.17500
C218        C  0.24990294  0.11434058  0.13581147     0.06600
C219        C  0.24989594  0.13588348  0.11426743     0.08400
C220        C  0.24980894  0.15428153  0.09587103    -0.18300
C221        C  0.25017128  0.34595183  0.09587366    -0.17500
C222        C  0.25009443  0.36434929  0.11427036     0.06600
C223        C  0.25010279  0.38589310  0.13581289     0.08400
C224        C  0.25019052  0.40429060  0.15420950    -0.18300
C225        C  0.24981138  0.40428234  0.34587524    -0.17500
C226        C  0.24989498  0.38588367  0.36427098     0.06600
C227        C  0.24989574  0.36433958  0.38581366     0.08400
C228        C  0.24981422  0.34594295  0.40421138    -0.18300
C229        C  0.25017075  0.09595021  0.34587006    -0.17500
C230        C  0.25008256  0.11434701  0.36426780     0.06600
C231        C  0.25007991  0.13588891  0.38581309     0.08400
C232        C  0.25016562  0.15428446  0.40421222    -0.18300
C233        C  0.34583426  0.09595055  0.25022385    -0.17500
C234        C  0.36423163  0.11434669  0.25013759     0.06600
C235        C  0.38577522  0.13588840  0.25013497     0.08400
C236        C  0.40417210  0.15428496  0.25021831    -0.18300
C237        C  0.34583395  0.40428888  0.24987010    -0.17500
C238        C  0.36422890  0.38588946  0.24995007     0.06600
C239        C  0.38576870  0.36434253  0.24994479     0.08400
C240        C  0.40416392  0.34594341  0.24985851    -0.18300
C241        C  0.15417487  0.09594430  0.24987724    -0.17500
C242        C  0.13577654  0.11434075  0.24996452     0.06600
C243        C  0.11423168  0.13588341  0.24996463     0.08400
C244        C  0.09583358  0.15428019  0.24987822    -0.18300
C245        C  0.15417497  0.40427355  0.25022267    -0.17500
C246        C  0.13577839  0.38587545  0.25014157     0.06600
C247        C  0.11423290  0.36433375  0.25014496     0.08400
C248        C  0.09583259  0.34593948  0.25023071    -0.18300
C249        C  0.40416456  0.25028607  0.15421718    -0.17500
C250        C  0.38576401  0.25020184  0.13582366     0.06600
C251        C  0.36421750  0.25020323  0.11428387     0.08400
C252        C  0.34581946  0.25028884  0.09588776    -0.18300
C253        C  0.09582563  0.24993231  0.15421104    -0.17500
C254        C  0.11422313  0.25001736  0.13581458     0.06600
C255        C  0.13576718  0.25001895  0.11427249     0.08400
C256        C  0.15416494  0.24993665  0.09587640    -0.18300
C257        C  0.15416970  0.25029178  0.40421147    -0.17500
C258        C  0.13577213  0.25020483  0.38581445     0.06600
C259        C  0.11422743  0.25020357  0.36427204     0.08400
C260        C  0.09582860  0.25028801  0.34587627    -0.18300
C261        C  0.40415618  0.24994585  0.34586774    -0.17500
C262        C  0.38576081  0.25003167  0.36426644     0.06600
C263        C  0.36422232  0.25003102  0.38581441     0.08400
C264        C  0.34582998  0.24994342  0.40421622    -0.18300
C265        C  0.34583298  0.34594049  0.00021998    -0.17500
C266        C  0.36423113  0.36433587  0.00013237     0.06600
C267        C  0.38577432  0.38587818  0.00012802     0.08400
C268        C  0.40416972  0.40427649  0.00021138    -0.18300
C269        C  0.34582320  0.15427943  0.99987645    -0.17500
C270        C  0.36422066  0.13588235  0.99996309     0.06600
C271        C  0.38576754  0.11434211  0.99996681     0.08400
C272        C  0.40416893  0.09594887  0.99988503    -0.18300
C273        C  0.15416655  0.34595162  0.99986559    -0.17500
C274        C  0.13577252  0.36435203  0.99995093     0.06600
C275        C  0.11423208  0.38589837  0.99995405     0.08400
C276        C  0.09583497  0.40429556  0.99987265    -0.18300
C277        C  0.15416521  0.15428962  0.00021801    -0.17500
C278        C  0.13576972  0.13589140  0.00012930     0.06600
C279        C  0.11422829  0.11434707  0.00012300     0.08400
C280        C  0.09583210  0.09594948  0.00020439    -0.18300
C281        C  0.34582450  0.00030593  0.34589848    -0.17500
C282        C  0.36421903  0.00021522  0.36429777     0.06600
C283        C  0.38576272  0.00020379  0.38583994     0.08400
C284        C  0.40416229  0.00028241  0.40423423    -0.18300
C285        C  0.09582101  0.99993188  0.40419493    -0.17500
C286        C  0.11422023  0.50002345  0.38581989     0.06600
C287        C  0.13575634  0.50002740  0.36426863     0.08400
C288        C  0.15416148  0.99995356  0.34585829    -0.18300
C289        C  0.15419897  0.00029775  0.15418982    -0.17500
C290        C  0.13580242  0.00020714  0.13579101     0.06600
C291        C  0.11425490  0.00019629  0.11425009     0.08400
C292        C  0.09585165  0.00027595  0.09585787    -0.18300
C293        C  0.40418560  0.99992295  0.09589460    -0.17500
C294        C  0.38576486  0.50001973  0.11427448     0.06600
C295        C  0.36423248  0.50002411  0.13582789     0.08400
C296        C  0.34586246  0.99994884  0.15424192    -0.18300
C297        C  0.99982665  0.09593851  0.40420934    -0.17500
C298        C  0.49991876  0.11433580  0.38581266     0.06600
C299        C  0.49992513  0.13588236  0.36427304     0.08400
C300        C  0.99983997  0.15428290  0.34587956    -0.18300
C301        C  0.00017256  0.34594351  0.34588223    -0.17500
C302        C  0.00008671  0.36433972  0.36428027     0.06600
C303        C  0.50008506  0.38588278  0.38582370     0.08400
C304        C  0.00016979  0.40428055  0.40422010    -0.18300
C305        C  0.99981211  0.40428256  0.09587900    -0.17500
C306        C  0.49990016  0.38588573  0.11427647     0.06600
C307        C  0.99990419  0.36434376  0.13582114     0.08400
C308        C  0.99982097  0.34594755  0.15421922    -0.18300
C309        C  0.00018984  0.15427731  0.15422271    -0.17500
C310        C  0.50011104  0.13588098  0.13582493     0.06600
C311        C  0.50011398  0.11434030  0.11427925     0.08400
C312        C  0.00019764  0.09594526  0.09588014    -0.18300
O313        O  0.00022116  0.04754082  0.58246506    -0.79100
O314        O  0.99978666  0.04753517  0.91762709    -0.80600
O315        O  0.04742755  0.08253603  0.50024799    -0.77700
O316        O  0.45257613  0.08253802  0.49984286    -0.76100
O317        O  0.41758701  0.04754477  0.49985057    -0.77800
O318        O  0.08241854  0.04754474  0.50024151    -0.78800
O319        O  0.99978034  0.08252912  0.95261566    -0.80100
O320        O  0.00023458  0.08253274  0.54747434    -0.80400
Eu321      Eu  0.00000182  0.05874183  0.50004600     2.39200
O322        O  0.47066877  0.02944393  0.97072209    -0.87900
O323        O  0.02933487  0.02944543  0.52937129    -0.91500
C324        C  0.00025928  0.07404963  0.57398294     1.03200
C325        C  0.99975520  0.07404431  0.92610759     1.03000
C326        C  0.07393602  0.07405337  0.50027217     1.02900
C327        C  0.42606777  0.07405416  0.49981867     1.00800
H328        H  0.04141974  0.04154215  0.95861354     0.30600
O329        O  0.02939238  0.02951386  0.97064574    -1.00300
H330        H  0.45858461  0.04154316  0.54147912     0.30600
O331        O  0.47061203  0.02951398  0.52944744    -1.02800
O332        O  0.00020781  0.45268591  0.91763365    -0.80100
O333        O  0.99976993  0.45268805  0.58246445    -0.79600
O334        O  0.08241423  0.99990168  0.95260316    -0.78000
O335        O  0.41758256  0.00032470  0.95263670    -0.81400
O336        O  0.41758823  0.99989506  0.54748731    -0.79200
O337        O  0.08242570  0.00032543  0.54745543    -0.77900
O338        O  0.04742826  0.41770589  0.49983704    -0.79400
O339        O  0.45257259  0.41769370  0.50025723    -0.81300
O340        O  0.08241701  0.45269893  0.49983949    -0.78100
O341        O  0.41757925  0.45268311  0.50024803    -0.80700
O342        O  0.04741761  0.99989165  0.91761832    -0.76500
O343        O  0.04744156  0.00031370  0.58245355    -0.76500
O344        O  0.45258608  0.99988940  0.58247144    -0.76100
O345        O  0.45256862  0.00032037  0.91764053    -0.79200
O346        O  0.00021001  0.41769478  0.95262467    -0.79100
O347        O  0.99977782  0.41769628  0.54747391    -0.77400
Eu348      Eu  0.99999785  0.00011279  0.94142503     2.39800
Eu349      Eu  0.00000785  0.00011526  0.55867068     2.39600
Eu350      Eu  0.05862546  0.00011846  0.50003265     2.38400
Eu351      Eu  0.44137905  0.00011670  0.50006083     2.39900
Eu352      Eu  0.99999563  0.44149085  0.50004859     2.39800
O353        O  0.47065754  0.47078281  0.52937509    -0.91800
O354        O  0.02932868  0.47078070  0.97071636    -0.90700
C355        C  0.00023746  0.42617720  0.92611617     1.03400
C356        C  0.99974451  0.42617905  0.57398240     1.02100
C357        C  0.07392786  0.99986620  0.92609566     1.01500
C358        C  0.42606155  0.00034990  0.92612709     1.03500
C359        C  0.42607609  0.99986017  0.57399404     1.02400
C360        C  0.07394892  0.00034568  0.57396591     1.01200
C361        C  0.07393655  0.42619008  0.49980881     1.01300
C362        C  0.42606371  0.42617473  0.50028018     1.03900
H363        H  0.04141038  0.45869454  0.54147471     0.31300
O364        O  0.02938204  0.47072310  0.52944428    -1.04000
H365        H  0.45857641  0.45869205  0.95862447     0.33300
O366        O  0.47060363  0.47072184  0.97065494    -1.06500
O367        O  0.00021636  0.20268315  0.66763438    -0.79100
O368        O  0.99978953  0.20268907  0.83246803    -0.80600
O369        O  0.04742737  0.16769492  0.74983816    -0.77700
O370        O  0.45257603  0.16769785  0.75025870    -0.76100
O371        O  0.41758499  0.20268911  0.75025583    -0.77800
O372        O  0.08241796  0.20268596  0.74983605    -0.78800
O373        O  0.99979553  0.16769888  0.79747593    -0.80100
O374        O  0.00021827  0.16769308  0.70262673    -0.80400
Eu375      Eu  0.00000086  0.19149069  0.75004910     2.39200
O376        O  0.47066329  0.22078021  0.77937940    -0.87900
O377        O  0.02933105  0.22077879  0.72071182    -0.91500
C378        C  0.00024873  0.17617469  0.67611803     1.03200
C379        C  0.99976675  0.17618060  0.82398471     1.03000
C380        C  0.07393623  0.17617697  0.74980914     1.02900
C381        C  0.42606780  0.17618072  0.75028555     1.00800
H382        H  0.04141908  0.20869423  0.79147099     0.30600
O383        O  0.02938934  0.22072297  0.77944156    -1.00300
H384        H  0.45857995  0.20869136  0.70862575     0.30600
O385        O  0.47060845  0.22072130  0.72065488    -1.02800
O386        O  0.00020849  0.29753879  0.83246724    -0.80100
O387        O  0.99978310  0.29754195  0.66763201    -0.79600
O388        O  0.08241285  0.25032367  0.79747183    -0.78000
O389        O  0.41757331  0.24990907  0.79746368    -0.81400
O390        O  0.41758116  0.25032721  0.70262017    -0.79200
O391        O  0.08241064  0.24989373  0.70261625    -0.77900
O392        O  0.04742560  0.33252877  0.75026723    -0.79400
O393        O  0.45256891  0.33252825  0.74983152    -0.81300
O394        O  0.08241473  0.29753564  0.75026315    -0.78100
O395        O  0.41757743  0.29753783  0.74982025    -0.80700
O396        O  0.04742232  0.25032730  0.83246339    -0.76500
O397        O  0.04742055  0.24989968  0.66762396    -0.76500
O398        O  0.45257091  0.25032221  0.66762846    -0.76100
O399        O  0.45256224  0.24990130  0.83245707    -0.79600
O400        O  0.00021039  0.33253038  0.79747654    -0.79100
O401        O  0.99978438  0.33253249  0.70262409    -0.77400
Eu402      Eu  0.99999401  0.25011376  0.80867174     2.39800
Eu403      Eu  0.99999788  0.25011321  0.69142201     2.39600
Eu404      Eu  0.05862029  0.25011089  0.75004550     2.38400
Eu405      Eu  0.44137605  0.25011512  0.75004395     2.39900
Eu406      Eu  0.99999764  0.30873744  0.75004906     2.39800
O407        O  0.47066734  0.27944757  0.72071281    -0.91800
O408        O  0.02932810  0.27944226  0.77937889    -0.90700
C409        C  0.00023871  0.32404758  0.82398519     1.03400
C410        C  0.99975466  0.32405055  0.67611526     1.02100
C411        C  0.07393095  0.25035439  0.82398053     1.01500
C412        C  0.42605395  0.24987728  0.82397277     1.03500
C413        C  0.42606259  0.25035324  0.67611168     1.02400
C414        C  0.07392887  0.24986696  0.67610710     1.01200
C415        C  0.07393389  0.32404476  0.75029541     1.01300
C416        C  0.42606002  0.32404633  0.74979496     1.03900
H417        H  0.04141886  0.29153478  0.70862644     0.31300
O418        O  0.02938897  0.27950530  0.72065542    -1.04000
H419        H  0.45857260  0.29153779  0.79146808     0.33300
O420        O  0.47060296  0.27950807  0.77944023    -1.06500
O421        O  0.33242212  0.49990305  0.70263351    -0.79100
O422        O  0.16758354  0.50032267  0.70260945    -0.80600
O423        O  0.25022303  0.45269529  0.66762437    -0.77700
O424        O  0.24980896  0.04753993  0.66762561    -0.76100
O425        O  0.24978949  0.08253098  0.70261621    -0.77800
O426        O  0.25022496  0.41770356  0.70261482    -0.78800
O427        O  0.20258045  0.50033348  0.66762445    -0.80100
O428        O  0.29743487  0.49990881  0.66763847    -0.80400
Eu429      Eu  0.25000455  0.50011739  0.69142337     2.39200
O430        O  0.22067826  0.02944876  0.72070369    -0.87900
O431        O  0.27933584  0.47078425  0.72071576    -0.91500
C432        C  0.32394252  0.49987701  0.67612399     1.03200
C433        C  0.17607034  0.50035730  0.67610227     1.03000
C434        C  0.25025482  0.42618659  0.67610627     1.02900
C435        C  0.24976815  0.07404862  0.67610750     1.00800
H436        H  0.20858359  0.45869438  0.70862060     0.30600
O437        O  0.22061035  0.47072453  0.72065176    -1.00300
H438        H  0.29143795  0.04153771  0.70863304     0.30600
O439        O  0.27940804  0.02950706  0.72066064    -1.02800
O440        O  0.16756605  0.49990222  0.79746057    -0.80100
O441        O  0.33240194  0.50033391  0.79748550    -0.79600
O442        O  0.20257878  0.41769266  0.75025459    -0.78000
O443        O  0.20258081  0.08253079  0.74983687    -0.81400
O444        O  0.29743081  0.08253387  0.75025439    -0.79200
O445        O  0.29742862  0.41770100  0.74983468    -0.77900
O446        O  0.24977084  0.45268865  0.83246303    -0.79400
O447        O  0.25021282  0.04754415  0.83245721    -0.81300
O448        O  0.24978353  0.41769860  0.79747078    -0.78100
O449        O  0.25021455  0.08253461  0.79746547    -0.80700
O450        O  0.16758469  0.45268107  0.75025643    -0.76500
O451        O  0.33241754  0.45269410  0.74983869    -0.76500
O452        O  0.33242459  0.04754533  0.75027132    -0.76100
O453        O  0.16759089  0.04753874  0.74982679    -0.79600
O454        O  0.20255449  0.49990684  0.83245438    -0.79100
O455        O  0.29740699  0.50033212  0.83247247    -0.77400
Eu456      Eu  0.19137044  0.50011344  0.75003918     2.39800
Eu457      Eu  0.30861950  0.50011810  0.75005412     2.39600
Eu458      Eu  0.25000113  0.44149230  0.75004446     2.38400
Eu459      Eu  0.25000721  0.05873722  0.75004285     2.39900
Eu460      Eu  0.24998567  0.50011513  0.80866901     2.39800
O461        O  0.27933773  0.02945044  0.77938427    -0.91800
O462        O  0.22066014  0.47078025  0.77937295    -0.90700
C463        C  0.17604626  0.49987654  0.82397017     1.03400
C464        C  0.32391650  0.50036275  0.82399296     1.02100
C465        C  0.17606945  0.42617273  0.75028558     1.01500
C466        C  0.17607231  0.07404791  0.74980537     1.03500
C467        C  0.32393984  0.07405319  0.75029135     1.02400
C468        C  0.32393674  0.42618483  0.74980694     1.01200
C469        C  0.24974723  0.42618009  0.82397974     1.01300
C470        C  0.25024116  0.07405283  0.82397414     1.03900
H471        H  0.29141406  0.45869624  0.79147346     0.31300
O472        O  0.27938577  0.47072485  0.77944269    -1.04000
H473        H  0.20858550  0.04153078  0.79145716     0.33300
O474        O  0.22061633  0.02950122  0.77942912    -1.06500
O475        O  0.20256894  0.16770428  0.00025652    -0.79100
O476        O  0.20257065  0.33253382  0.99982752    -0.80600
O477        O  0.16758077  0.24990414  0.54747189    -0.77700
O478        O  0.16758141  0.25033462  0.95261731    -0.76100
O479        O  0.20257455  0.25032842  0.91762869    -0.77800
O480        O  0.20257001  0.24990274  0.58246497    -0.78800
O481        O  0.16757748  0.29754481  0.99983235    -0.80100
O482        O  0.16757735  0.20269484  0.00025713    -0.80400
Eu483      Eu  0.19137265  0.25011929  0.00004442     2.39200
O484        O  0.22066714  0.27944820  0.97071241    -0.87900
O485        O  0.22066256  0.22078585  0.52937681    -0.91500
C486        C  0.17606043  0.17618646  0.00028576     1.03200
C487        C  0.17606139  0.32405311  0.99980037     1.03000
C488        C  0.17606203  0.24987339  0.57398107     1.02900
C489        C  0.17606534  0.25036020  0.92610928     1.00800
H490        H  0.20857342  0.29154088  0.54146553     0.30600
O491        O  0.22060325  0.27951117  0.52943704    -1.00300
H492        H  0.20857427  0.20869629  0.95862198     0.30600
O493        O  0.22060320  0.22072527  0.97065186    -1.02800
O494        O  0.29742810  0.33252749  0.00025531    -0.80100
O495        O  0.29741921  0.16769767  0.99983334    -0.79600
O496        O  0.25020266  0.29754632  0.58246077    -0.78000
O497        O  0.24978784  0.29753865  0.91762784    -0.81400
O498        O  0.25021129  0.20268953  0.91762800    -0.79200
O499        O  0.24977407  0.20268790  0.58245854    -0.77900
O500        O  0.33240904  0.25032666  0.54748176    -0.79400
O501        O  0.33241788  0.24990229  0.95262343    -0.81300
O502        O  0.29741555  0.25032833  0.58247014    -0.78100
O503        O  0.29742655  0.24990081  0.91763221    -0.80700
O504        O  0.25020577  0.33253700  0.54746911    -0.76500
O505        O  0.24977550  0.16769735  0.54746683    -0.76500
O506        O  0.25020566  0.16769838  0.95261852    -0.76100
O507        O  0.24977899  0.33253133  0.95261738    -0.79600
O508        O  0.33241993  0.29753671  0.00026301    -0.79100
O509        O  0.33241280  0.20268621  0.99984133    -0.77400
Eu510      Eu  0.24999776  0.30874016  0.00004496     2.39800
Eu511      Eu  0.24999551  0.19149493  0.00004416     2.39600
Eu512      Eu  0.24999350  0.25011799  0.55866974     2.38400
Eu513      Eu  0.25000058  0.25011465  0.94142389     2.39900
Eu514      Eu  0.30862244  0.25011461  0.00005071     2.39800
O515        O  0.27933401  0.22078250  0.97071481    -0.91800
O516        O  0.27932938  0.27944985  0.52938061    -0.90700
C517        C  0.32393683  0.32404491  0.00028773     1.03400
C518        C  0.32392843  0.17617799  0.99980887     1.02100
C519        C  0.25023330  0.32405496  0.57397783     1.01500
C520        C  0.24975279  0.32404764  0.92610906     1.03500
C521        C  0.25023597  0.17618066  0.92610974     1.02400
C522        C  0.24974427  0.17617913  0.57397549     1.01200
C523        C  0.32392463  0.25035607  0.57398979     1.01300
C524        C  0.32393515  0.24987349  0.92611442     1.03900
H525        H  0.29141355  0.20869518  0.54147028     0.31300
O526        O  0.27938632  0.22072522  0.52943999    -1.04000
H527        H  0.29142128  0.29153602  0.95862759     0.33300
O528        O  0.27939191  0.27950709  0.97065673    -1.06500
C529        C  0.24982651  0.09594472  0.65421022    -0.17500
C530        C  0.24990294  0.11434048  0.63581146     0.06600
C531        C  0.24989594  0.13588340  0.61426746     0.08400
C532        C  0.24980894  0.15428149  0.59587110    -0.18300
C533        C  0.25017127  0.34595183  0.59587373    -0.17500
C534        C  0.25009442  0.36434933  0.61427037     0.06600
C535        C  0.25010279  0.38589317  0.63581286     0.08400
C536        C  0.25019052  0.40429064  0.65420950    -0.18300
C537        C  0.24981138  0.40428235  0.84587523    -0.17500
C538        C  0.24989497  0.38588362  0.86427091     0.06600
C539        C  0.24989573  0.36433949  0.88581355     0.08400
C540        C  0.24981422  0.34594294  0.90421135    -0.18300
C541        C  0.25017076  0.09595020  0.84587006    -0.17500
C542        C  0.25008256  0.11434708  0.86426771     0.06600
C543        C  0.25007990  0.13588899  0.88581298     0.08400
C544        C  0.25016562  0.15428449  0.90421216    -0.18300
C545        C  0.34583429  0.09595051  0.75022391    -0.17500
C546        C  0.36423167  0.11434664  0.75013763     0.06600
C547        C  0.38577524  0.13588838  0.75013495     0.08400
C548        C  0.40417211  0.15428494  0.75021835    -0.18300
C549        C  0.34583400  0.40428894  0.74987002    -0.17500
C550        C  0.36422893  0.38588951  0.74995000     0.06600
C551        C  0.38576866  0.36434250  0.74994478     0.08400
C552        C  0.40416386  0.34594335  0.74985849    -0.18300
C553        C  0.15417487  0.09594428  0.74987733    -0.17500
C554        C  0.13577656  0.11434076  0.74996462     0.06600
C555        C  0.11423165  0.13588337  0.74996473     0.08400
C556        C  0.09583352  0.15428013  0.74987826    -0.18300
C557        C  0.15417498  0.40427353  0.75022276    -0.17500
C558        C  0.13577843  0.38587539  0.75014167     0.06600
C559        C  0.11423291  0.36433371  0.75014506     0.08400
C560        C  0.09583258  0.34593946  0.75023074    -0.18300
C561        C  0.40416461  0.25028615  0.65421712    -0.17500
C562        C  0.38576404  0.25020192  0.63582362     0.06600
C563        C  0.36421750  0.25020324  0.61428387     0.08400
C564        C  0.34581949  0.25028888  0.59588773    -0.18300
C565        C  0.09582564  0.24993222  0.65421108    -0.17500
C566        C  0.11422312  0.25001726  0.63581457     0.06600
C567        C  0.13576719  0.25001886  0.61427248     0.08400
C568        C  0.15416493  0.24993660  0.59587635    -0.18300
C569        C  0.15416970  0.25029174  0.90421151    -0.17500
C570        C  0.13577211  0.25020490  0.88581452     0.06600
C571        C  0.11422741  0.25020364  0.86427211     0.08400
C572        C  0.09582859  0.25028797  0.84587632    -0.18300
C573        C  0.40415623  0.24994588  0.84586777    -0.17500
C574        C  0.38576078  0.25003162  0.86426639     0.06600
C575        C  0.36422226  0.25003098  0.88581433     0.08400
C576        C  0.34582995  0.24994350  0.90421616    -0.18300
C577        C  0.34583301  0.34594046  0.50021996    -0.17500
C578        C  0.36423115  0.36433585  0.50013236     0.06600
C579        C  0.38577428  0.38587822  0.50012800     0.08400
C580        C  0.40416968  0.40427654  0.50021138    -0.18300
C581        C  0.34582319  0.15427943  0.49987647    -0.17500
C582        C  0.36422061  0.13588234  0.49996310     0.06600
C583        C  0.38576752  0.11434214  0.49996683     0.08400
C584        C  0.40416890  0.09594890  0.49988500    -0.18300
C585        C  0.15416653  0.34595162  0.49986556    -0.17500
C586        C  0.13577250  0.36435201  0.49995099     0.06600
C587        C  0.11423209  0.38589838  0.49995419     0.08400
C588        C  0.09583498  0.40429559  0.49987277    -0.18300
C589        C  0.15416521  0.15428961  0.50021798    -0.17500
C590        C  0.13576970  0.13589141  0.50012933     0.06600
C591        C  0.11422829  0.11434709  0.50012310     0.08400
C592        C  0.09583208  0.09594952  0.50020447    -0.18300
C593        C  0.34582453  0.00030606  0.84589847    -0.17500
C594        C  0.36421905  0.00021535  0.86429776     0.06600
C595        C  0.38576272  0.00020391  0.88583992     0.08400
C596        C  0.40416232  0.00028254  0.90423418    -0.18300
C597        C  0.09582101  0.99993185  0.90419495    -0.17500
C598        C  0.11422020  0.50002335  0.88581989     0.06600
C599        C  0.13575634  0.50002736  0.86426866     0.08400
C600        C  0.15416144  0.99995363  0.84585823    -0.18300
C601        C  0.15419893  0.00029772  0.65418990    -0.17500
C602        C  0.13580239  0.00020704  0.63579108     0.06600
C603        C  0.11425490  0.00019619  0.61425013     0.08400
C604        C  0.09585167  0.00027586  0.59585791    -0.18300
C605        C  0.40418564  0.99992292  0.59589466    -0.17500
C606        C  0.38576480  0.50001986  0.61427444     0.06600
C607        C  0.36423242  0.50002417  0.63582787     0.08400
C608        C  0.34586246  0.99994890  0.65424195    -0.18300
C609        C  0.99982659  0.09593853  0.90420935    -0.17500
C610        C  0.49991876  0.11433580  0.88581267     0.06600
C611        C  0.49992513  0.13588234  0.86427304     0.08400
C612        C  0.99983997  0.15428288  0.84587955    -0.18300
C613        C  0.00017255  0.34594350  0.84588228    -0.17500
C614        C  0.00008671  0.36433969  0.86428031     0.06600
C615        C  0.50008506  0.38588281  0.88582367     0.08400
C616        C  0.00016979  0.40428053  0.90422011    -0.18300
C617        C  0.99981211  0.40428254  0.59587898    -0.17500
C618        C  0.49990016  0.38588566  0.61427642     0.06600
C619        C  0.99990419  0.36434372  0.63582113     0.08400
C620        C  0.99982097  0.34594752  0.65421923    -0.18300
C621        C  0.00018984  0.15427739  0.65422272    -0.17500
C622        C  0.50011104  0.13588106  0.63582492     0.06600
C623        C  0.50011398  0.11434039  0.61427923     0.08400
C624        C  0.00019764  0.09594531  0.59588013    -0.18300
O625        O  0.00020184  0.54754025  0.08246438    -0.79100
O626        O  0.99979386  0.54753437  0.41762530    -0.80600
O627        O  0.04742236  0.58253126  0.00026025    -0.77700
O628        O  0.45257493  0.58254175  0.99983197    -0.76100
O629        O  0.41758403  0.54754986  0.99982680    -0.77800
O630        O  0.08241143  0.54753862  0.00026691    -0.78800
O631        O  0.99979325  0.58252708  0.45261482    -0.80100
O632        O  0.00020990  0.58253127  0.04747303    -0.80400
Eu633      Eu  0.99999431  0.55873940  0.00004550     2.39200
O634        O  0.47066107  0.52944791  0.47071203    -0.87900
O635        O  0.02932153  0.52944935  0.02938413    -0.91500
C636        C  0.00023699  0.57404876  0.07398175     1.03200
C637        C  0.99976867  0.57404319  0.42610643     1.03000
C638        C  0.07393074  0.57404768  0.00029298     1.02900
C639        C  0.42606666  0.57405904  0.99980081     1.00800
H640        H  0.04141868  0.54153612  0.45862754     0.30600
O641        O  0.02938717  0.52950792  0.47065596    -1.00300
H642        H  0.45856744  0.54153664  0.04146199     0.30600
O643        O  0.47059759  0.52950690  0.02943385    -1.02800
O644        O  0.00020079  0.95268690  0.41763168    -0.80100
O645        O  0.99978922  0.95268861  0.08246369    -0.79600
O646        O  0.08240828  0.49989881  0.45262638    -0.78000
O647        O  0.41757675  0.50032155  0.45261338    -0.81400
O648        O  0.41756634  0.49989423  0.04746341    -0.79200
O649        O  0.08240383  0.50032434  0.04747923    -0.77900
O650        O  0.04742960  0.91770221  0.99982628    -0.79400
O651        O  0.45257778  0.91769846  0.00026950    -0.81300
O652        O  0.08242017  0.95269387  0.99981586    -0.78100
O653        O  0.41758632  0.95268918  0.00027341    -0.80700
O654        O  0.04742085  0.49989957  0.41763183    -0.76500
O655        O  0.04741214  0.50032680  0.08246908    -0.76500
O656        O  0.45255666  0.49990240  0.08245577    -0.76100
O657        O  0.45257191  0.50032819  0.41762683    -0.79200
O658        O  0.00019710  0.91769698  0.45262364    -0.79100
O659        O  0.99980248  0.91769769  0.04747258    -0.77400
Eu660      Eu  0.99999597  0.50011329  0.44142501     2.39800
Eu661      Eu  0.99998604  0.50011504  0.05867064     2.39600
Eu662      Eu  0.05861314  0.50011636  0.00005254     2.38400
Eu663      Eu  0.44136677  0.50011461  0.00004087     2.39900
Eu664      Eu  0.00000314  0.94149324  0.00004812     2.39800
O665        O  0.47067094  0.97077899  0.02938793    -0.91800
O666        O  0.02933633  0.97077682  0.47070636    -0.90700
C667        C  0.00022408  0.92617851  0.42611481     1.03400
C668        C  0.99976677  0.92617989  0.07398117     1.02100
C669        C  0.07392864  0.49986970  0.42611659     1.01500
C670        C  0.42606239  0.50035317  0.42610604     1.03500
C671        C  0.42604847  0.49986826  0.07397235     1.02400
C672        C  0.07392131  0.50035369  0.07398750     1.01200
C673        C  0.07393783  0.92618521  0.99979102     1.01300
C674        C  0.42606898  0.92618038  0.00030100     1.03900
H675        H  0.04142759  0.95870105  0.04145765     0.31300
O676        O  0.02939653  0.97073017  0.02943074    -1.04000
H677        H  0.45857745  0.95869821  0.45863849     0.33300
O678        O  0.47060866  0.97072765  0.47066501    -1.06500
O679        O  0.00021910  0.70268714  0.16762987    -0.79100
O680        O  0.99979656  0.70268455  0.33246389    -0.80600
O681        O  0.04742268  0.66769572  0.24983668    -0.77700
O682        O  0.45257304  0.66769411  0.25025712    -0.76100
O683        O  0.41758198  0.70268491  0.25025769    -0.77800
O684        O  0.08241142  0.70268916  0.24984441    -0.78800
O685        O  0.99980098  0.66769455  0.29747129    -0.80100
O686        O  0.00022060  0.66769617  0.20262108    -0.80400
Eu687      Eu  0.99999823  0.69148980  0.25004709     2.39200
O688        O  0.47066299  0.72077573  0.27938378    -0.87900
O689        O  0.02933064  0.72078168  0.22071540    -0.91500
C690        C  0.00025186  0.67617850  0.17611246     1.03200
C691        C  0.99977514  0.67617601  0.32398008     1.03000
C692        C  0.07393054  0.67617993  0.24981303     1.02900
C693        C  0.42606444  0.67617632  0.25028558     1.00800
H694        H  0.04141588  0.70869728  0.29146815     0.30600
O695        O  0.02938589  0.72072545  0.27943896    -1.00300
H696        H  0.45857794  0.70868883  0.20862336     0.30600
O697        O  0.47060645  0.72071865  0.22065275    -1.02800
O698        O  0.00020160  0.79754330  0.33246298    -0.80100
O699        O  0.99978036  0.79753802  0.16762754    -0.79600
O700        O  0.08240780  0.75032989  0.29747744    -0.78000
O701        O  0.41757835  0.74990295  0.29746939    -0.81400
O702        O  0.41758012  0.75032129  0.20262361    -0.79200
O703        O  0.08241167  0.74989978  0.20261955    -0.77900
O704        O  0.04742846  0.83253256  0.25026564    -0.79400
O705        O  0.45257358  0.83252745  0.24982988    -0.81300
O706        O  0.08241768  0.79753997  0.25026501    -0.78100
O707        O  0.41758393  0.79753466  0.24982882    -0.80700
O708        O  0.04741831  0.75032762  0.33246996    -0.76500
O709        O  0.04742153  0.74989808  0.16762731    -0.76500
O710        O  0.45256989  0.75032375  0.16763192    -0.76100
O711        O  0.45256632  0.74990088  0.33246365    -0.79600
O712        O  0.00020506  0.83253477  0.29747185    -0.79100
O713        O  0.99978203  0.83252944  0.20261851    -0.77400
Eu714      Eu  0.99999405  0.75011372  0.30867326     2.39800
Eu715      Eu  0.99999788  0.75011323  0.19142329     2.39600
Eu716      Eu  0.05861930  0.75011610  0.25004846     2.38400
Eu717      Eu  0.44137702  0.75010995  0.25004698     2.39900
Eu718      Eu  0.00000023  0.80873828  0.25004706     2.39800
O719        O  0.47066762  0.77944467  0.22071635    -0.91800
O720        O  0.02932832  0.77944669  0.27938329    -0.90700
C721        C  0.00023047  0.82405220  0.32398050     1.03400
C722        C  0.99975155  0.82404679  0.17610975     1.02100
C723        C  0.07392646  0.75035760  0.32398635     1.01500
C724        C  0.42605847  0.74987407  0.32397867     1.03500
C725        C  0.42606150  0.75035125  0.17611492     1.02400
C726        C  0.07392991  0.74986899  0.17611021     1.01200
C727        C  0.07393713  0.82404927  0.25029544     1.01300
C728        C  0.42606570  0.82404340  0.24979890     1.03900
H729        H  0.04142085  0.79153738  0.20862406     0.31300
O730        O  0.02939105  0.77950809  0.22065316    -1.04000
H731        H  0.45857574  0.79153482  0.29146551     0.33300
O732        O  0.47060658  0.77950536  0.27943755    -1.06500
O733        O  0.33244240  0.99991278  0.20264369    -0.79100
O734        O  0.16760383  0.00033231  0.20259914    -0.80600
O735        O  0.25023767  0.95269535  0.16762409    -0.77700
O736        O  0.24979413  0.54753976  0.16762532    -0.76100
O737        O  0.24978921  0.58253148  0.20261544    -0.77800
O738        O  0.25022524  0.91770304  0.20261413    -0.78800
O739        O  0.20260211  0.00033331  0.16761595    -0.80100
O740        O  0.29745653  0.99990855  0.16764682    -0.80400
Eu741      Eu  0.25002176  0.00011661  0.19142330     2.39200
O742        O  0.22066480  0.52944735  0.22070958    -0.87900
O743        O  0.27934928  0.97078568  0.22072165    -0.91500
C744        C  0.32396367  0.99988301  0.17613415     1.03200
C745        C  0.17609151  0.00036329  0.17609198     1.03000
C746        C  0.25026006  0.92618661  0.17610565     1.02900
C747        C  0.24976278  0.57404851  0.17610681     1.00800
H748        H  0.20859706  0.95869220  0.20861535     0.30600
O749        O  0.22062439  0.97072101  0.22064700    -1.00300
H750        H  0.29142449  0.54153995  0.20862760     0.30600
O751        O  0.27939405  0.52951067  0.22065579    -1.02800
O752        O  0.16758503  0.99991011  0.29745517    -0.80100
O753        O  0.33242093  0.00034183  0.29749090    -0.79600
O754        O  0.20258925  0.91769102  0.25025746    -0.78000
O755        O  0.20257174  0.58253453  0.24983052    -0.81400
O756        O  0.29742040  0.58253548  0.25025722    -0.79200
O757        O  0.29743769  0.91769730  0.24982838    -0.77900
O758        O  0.24978389  0.95269011  0.33246592    -0.79400
O759        O  0.25019957  0.54754274  0.33245992    -0.81300
O760        O  0.24978952  0.91769941  0.29747422    -0.78100
O761        O  0.25020872  0.58253392  0.29746882    -0.80700
O762        O  0.16759776  0.95268181  0.25024847    -0.76500
O763        O  0.33242819  0.95268936  0.24984201    -0.76500
O764        O  0.33241160  0.54754458  0.25026352    -0.76100
O765        O  0.16758031  0.54754343  0.24982989    -0.79600
O766        O  0.20257041  0.99991010  0.33245253    -0.79100
O767        O  0.29742298  0.00033541  0.33247437    -0.77400
Eu768      Eu  0.19138651  0.00011259  0.25003284     2.39800
Eu769      Eu  0.30863563  0.00011722  0.25006041     2.39600
Eu770      Eu  0.25001261  0.94149037  0.25004525     2.38400
Eu771      Eu  0.24999575  0.55873922  0.25004357     2.39900
Eu772      Eu  0.25000308  0.00011428  0.30866906     2.39800
O773        O  0.27932203  0.52944804  0.27938219    -0.91800
O774        O  0.22067589  0.97078276  0.27937089    -0.90700
C775        C  0.17606278  0.99988387  0.32396553     1.03400
C776        C  0.32393308  0.00037011  0.32399761     1.02100
C777        C  0.17608037  0.92617277  0.25028246     1.01500
C778        C  0.17606318  0.57405231  0.24980237     1.03500
C779        C  0.32392899  0.57405312  0.25028833     1.02400
C780        C  0.32394589  0.92618041  0.24980415     1.01200
C781        C  0.24975505  0.92618153  0.32398316     1.01300
C782        C  0.25023331  0.57405145  0.32397744     1.03900
H783        H  0.29143073  0.95868994  0.29147696     0.31300
O784        O  0.27940304  0.97071874  0.27944617    -1.04000
H785        H  0.20856884  0.54153714  0.29146050     0.33300
O786        O  0.22059908  0.52950738  0.27943247    -1.06500
O787        O  0.20256912  0.66769928  0.50026184    -0.79100
O788        O  0.20257239  0.83253397  0.49982903    -0.80600
O789        O  0.16757704  0.74990690  0.04746671    -0.77700
O790        O  0.16758463  0.75033448  0.45261317    -0.76100
O791        O  0.20257692  0.75032727  0.41762368    -0.77800
O792        O  0.20256634  0.74990421  0.08245980    -0.78800
O793        O  0.16757918  0.79754484  0.49982363    -0.80100
O794        O  0.16757970  0.70269177  0.50025750    -0.80400
Eu795      Eu  0.19137312  0.75011997  0.50004156     2.39200
O796        O  0.22066961  0.77944987  0.47071163    -0.87900
O797        O  0.22066095  0.72078769  0.02937577    -0.91500
C798        C  0.17606089  0.67618233  0.50028928     1.03200
C799        C  0.17606318  0.82405285  0.49979601     1.03000
C800        C  0.17605808  0.74987574  0.07397598     1.02900
C801        C  0.17606806  0.75036047  0.42610505     1.00800
H802        H  0.20857348  0.79154246  0.04146505     0.30600
O803        O  0.22060287  0.77951254  0.02943678    -1.00300
H804        H  0.20857447  0.70869676  0.45862179     0.30600
O805        O  0.22060364  0.72072567  0.47065103    -1.02800
O806        O  0.29742787  0.83253257  0.50026061    -0.80100
O807        O  0.29741762  0.66769758  0.49983451    -0.79600
O808        O  0.25020778  0.79754296  0.08246393    -0.78000
O809        O  0.24978505  0.79754321  0.41763190    -0.81400
O810        O  0.25021390  0.70268492  0.41763209    -0.79200
O811        O  0.24976886  0.70269127  0.08246179    -0.77900
O812        O  0.33241271  0.75032397  0.04747670    -0.79400
O813        O  0.33241462  0.74990235  0.45261942    -0.81300
O814        O  0.29741908  0.75032709  0.08246501    -0.78100
O815        O  0.29742423  0.74990208  0.41762723    -0.80700
O816        O  0.25021257  0.83253401  0.04747289    -0.76500
O817        O  0.24976902  0.66770039  0.04747065    -0.76500
O818        O  0.25019961  0.66769464  0.45262376    -0.76100
O819        O  0.24978523  0.83253498  0.45262263    -0.79600
O820        O  0.33241752  0.79753987  0.50026320    -0.79100
O821        O  0.33241120  0.70268627  0.49983285    -0.77400
Eu822      Eu  0.25000000  0.80874060  0.50004683     2.39800
Eu823      Eu  0.24999335  0.69149447  0.50004602     2.39600
Eu824      Eu  0.24999342  0.75011797  0.05866863     2.38400
Eu825      Eu  0.25000061  0.75011466  0.44142205     2.39900
Eu826      Eu  0.30862199  0.75011394  0.50004801     2.39800
O827        O  0.27933159  0.72078090  0.47071409    -0.91800
O828        O  0.27933082  0.77944786  0.02937953    -0.90700
C829        C  0.32393632  0.82404912  0.50029113     1.03400
C830        C  0.32392676  0.67617834  0.49980446     1.02100
C831        C  0.25024023  0.82405158  0.07398144     1.01500
C832        C  0.24975416  0.82405208  0.42611430     1.03500
C833        C  0.25023457  0.67617616  0.42611498     1.02400
C834        C  0.24973743  0.67618253  0.07397916     1.01200
C835        C  0.32392845  0.75035388  0.07398481     1.01300
C836        C  0.32393245  0.74987326  0.42611029     1.03900
H837        H  0.29141356  0.70869353  0.04147003     0.31300
O838        O  0.27938659  0.72072396  0.02943973    -1.04000
H839        H  0.29142134  0.79153552  0.45862738     0.33300
O840        O  0.27939136  0.77950642  0.47065617    -1.06500
C841        C  0.24982549  0.59594389  0.15420902    -0.17500
C842        C  0.24990229  0.61434024  0.13581096     0.06600
C843        C  0.24989187  0.63588532  0.11426929     0.08400
C844        C  0.24980189  0.65428505  0.09587472    -0.18300
C845        C  0.25017832  0.84594823  0.09587736    -0.17500
C846        C  0.25009847  0.86434726  0.11427235     0.06600
C847        C  0.25010336  0.88589327  0.13581249     0.08400
C848        C  0.25019140  0.90429135  0.15420841    -0.18300
C849        C  0.24981509  0.90428484  0.34587953    -0.17500
C850        C  0.24989604  0.88588796  0.36427691     0.06600
C851        C  0.24989529  0.86434538  0.38582080     0.08400
C852        C  0.24981424  0.84594850  0.40421806    -0.18300
C853        C  0.25016702  0.59594770  0.34587430    -0.17500
C854        C  0.25008147  0.61434272  0.36427368     0.06600
C855        C  0.25008033  0.63588306  0.38582020     0.08400
C856        C  0.25016557  0.65427890  0.40421885    -0.18300
C857        C  0.34582559  0.59594887  0.25021930    -0.17500
C858        C  0.36422483  0.61434351  0.25013299     0.06600
C859        C  0.38577034  0.63588399  0.25013237     0.08400
C860        C  0.40416823  0.65428003  0.25021764    -0.18300
C861        C  0.34584137  0.90428363  0.24986528    -0.17500
C862        C  0.36423498  0.88588347  0.24994650     0.06600
C863        C  0.38577397  0.86433685  0.24994508     0.08400
C864        C  0.40416924  0.84593855  0.24986180    -0.18300
C865        C  0.15416744  0.59594951  0.24987226    -0.17500
C866        C  0.13577048  0.61434673  0.24996089     0.06600
C867        C  0.11422636  0.63588905  0.24996492     0.08400
C868        C  0.09582817  0.65428497  0.24988147    -0.18300
C869        C  0.15418374  0.90427516  0.25021797    -0.17500
C870        C  0.13578527  0.88587856  0.25013680     0.06600
C871        C  0.11423770  0.86433822  0.25014231     0.08400
C872        C  0.09583630  0.84594454  0.25022997    -0.18300
C873        C  0.40416395  0.75028484  0.15421925    -0.17500
C874        C  0.38576555  0.75020068  0.13582311     0.06600
C875        C  0.36422098  0.75020119  0.11428060     0.08400
C876        C  0.34582370  0.75028634  0.09588323    -0.18300
C877        C  0.09582623  0.74993363  0.15421306    -0.17500
C878        C  0.11422152  0.75001866  0.13581391     0.06600
C879        C  0.13576359  0.75002114  0.11426906     0.08400
C880        C  0.15416058  0.74993933  0.09587168    -0.18300
C881        C  0.15417179  0.75029566  0.40420860    -0.17500
C882        C  0.13577216  0.75021077  0.38581407     0.06600
C883        C  0.11422500  0.75020841  0.36427481     0.08400
C884        C  0.09582453  0.75029145  0.34588109    -0.18300
C885        C  0.40416037  0.74994239  0.34587268    -0.17500
C886        C  0.38576329  0.75002690  0.36426925     0.06600
C887        C  0.36422229  0.75002523  0.38581405     0.08400
C888        C  0.34582794  0.74993969  0.40421343    -0.18300
C889        C  0.34583409  0.84594500  0.00022577    -0.17500
C890        C  0.36423193  0.86434185  0.00014321     0.06600
C891        C  0.38577556  0.88588550  0.00014705     0.08400
C892        C  0.40417263  0.90428311  0.00023439    -0.18300
C893        C  0.34582220  0.65428134  0.99987060    -0.17500
C894        C  0.36422274  0.63588796  0.99995522     0.06600
C895        C  0.38577103  0.61435014  0.99995463     0.08400
C896        C  0.40417045  0.59595555  0.99986871    -0.18300
C897        C  0.15416765  0.84594970  0.99985981    -0.17500
C898        C  0.13577052  0.86434639  0.99994317     0.06600
C899        C  0.11422873  0.88589036  0.99994193     0.08400
C900        C  0.09583357  0.90428892  0.99985639    -0.18300
C901        C  0.15416404  0.65428516  0.00022368    -0.17500
C902        C  0.13576885  0.63588547  0.00014008     0.06600
C903        C  0.11422701  0.61433977  0.00014203     0.08400
C904        C  0.09582915  0.59594288  0.00022743    -0.18300
C905        C  0.34581181  0.50029670  0.34589024    -0.17500
C906        C  0.36421459  0.50020939  0.36428145     0.06600
C907        C  0.38576661  0.50020464  0.38581547     0.08400
C908        C  0.40416805  0.50028661  0.40420799    -0.18300
C909        C  0.09582676  0.49993617  0.40422105    -0.17500
C910        C  0.11421626  0.00002264  0.38579549     0.06600
C911        C  0.13576071  0.00003339  0.36425237     0.08400
C912        C  0.15414887  0.49994422  0.34586650    -0.18300
C913        C  0.15417681  0.50029138  0.15420237    -0.17500
C914        C  0.13577661  0.50020559  0.13580794     0.06600
C915        C  0.11422445  0.50020280  0.11427287     0.08400
C916        C  0.09581975  0.50028615  0.09588284    -0.18300
C917        C  0.40415370  0.49993323  0.09586967    -0.17500
C918        C  0.38579525  0.00001325  0.11429717     0.06600
C919        C  0.36425824  0.00002577  0.13584471     0.08400
C920        C  0.34584029  0.49994241  0.15422945    -0.18300
C921        C  0.99984584  0.59593775  0.40420850    -0.17500
C922        C  0.49993839  0.61433369  0.38581046     0.06600
C923        C  0.49994208  0.63587819  0.36426880     0.08400
C924        C  0.99985327  0.65427792  0.34587454    -0.18300
C925        C  0.00015942  0.84594845  0.34587724    -0.17500
C926        C  0.00007008  0.86434390  0.36427601     0.06600
C927        C  0.50006568  0.88588509  0.38582130     0.08400
C928        C  0.00015068  0.90428153  0.40421904    -0.18300
C929        C  0.99983117  0.90428301  0.09587730    -0.17500
C930        C  0.49991215  0.88588499  0.11427362     0.06600
C931        C  0.99990737  0.86434054  0.13581591     0.08400
C932        C  0.99981900  0.84594312  0.15421285    -0.18300
C933        C  0.00019189  0.65428184  0.15421627    -0.17500
C934        C  0.50010790  0.63588426  0.13581966     0.06600
C935        C  0.50010196  0.61434104  0.11427643     0.08400
C936        C  0.00017860  0.59594482  0.09587845    -0.18300
O937        O  0.00020184  0.54754026  0.58246428    -0.79100
O938        O  0.99979386  0.54753437  0.91762534    -0.80600
O939        O  0.04742235  0.58253130  0.50026032    -0.77700
O940        O  0.45257494  0.58254171  0.49983207    -0.76100
O941        O  0.41758399  0.54754987  0.49982690    -0.77800
O942        O  0.08241141  0.54753866  0.50026679    -0.78800
O943        O  0.99979325  0.58252712  0.95261483    -0.80100
O944        O  0.00020990  0.58253130  0.54747294    -0.80400
Eu945      Eu  0.99999433  0.55873937  0.50004552     2.39200
O946        O  0.47066111  0.52944791  0.97071200    -0.87900
O947        O  0.02932152  0.52944933  0.52938422    -0.91500
C948        C  0.00023699  0.57404878  0.57398165     1.03200
C949        C  0.99976867  0.57404320  0.92610645     1.03000
C950        C  0.07393073  0.57404771  0.50029296     1.02900
C951        C  0.42606665  0.57405905  0.49980089     1.00800
H952        H  0.04141865  0.54153598  0.95862762     0.30600
O953        O  0.02938731  0.52950802  0.97065584    -1.00300
H954        H  0.45856748  0.54153655  0.54146196     0.30600
O955        O  0.47059754  0.52950692  0.52943393    -1.02800
O956        O  0.00020078  0.95268686  0.91763172    -0.80100
O957        O  0.99978921  0.95268860  0.58246371    -0.79600
O958        O  0.08240831  0.49989870  0.95262639    -0.78000
O959        O  0.41757677  0.50032165  0.95261341    -0.81400
O960        O  0.41756635  0.49989436  0.54746344    -0.79200
O961        O  0.08240382  0.50032443  0.54747924    -0.77900
O962        O  0.04742963  0.91770226  0.49982620    -0.79400
O963        O  0.45257777  0.91769846  0.50026961    -0.81300
O964        O  0.08242022  0.95269390  0.49981578    -0.78100
O965        O  0.41758630  0.95268918  0.50027335    -0.80700
O966        O  0.04742084  0.49989964  0.91763187    -0.76500
O967        O  0.04741212  0.50032669  0.58246911    -0.76500
O968        O  0.45255666  0.49990234  0.58245582    -0.76100
O969        O  0.45257191  0.50032829  0.91762684    -0.79200
O970        O  0.00019710  0.91769695  0.95262368    -0.79100
O971        O  0.99980248  0.91769767  0.54747260    -0.77400
Eu972      Eu  0.99999596  0.50011325  0.94142504     2.39800
Eu973      Eu  0.99998602  0.50011499  0.55867065     2.39600
Eu974      Eu  0.05861313  0.50011640  0.50005255     2.38400
Eu975      Eu  0.44136674  0.50011462  0.50004087     2.39900
Eu976      Eu  0.00000313  0.94149322  0.50004814     2.39800
O977        O  0.47067093  0.97077892  0.52938801    -0.91800
O978        O  0.02933636  0.97077679  0.97070628    -0.90700
C979        C  0.00022408  0.92617847  0.92611486     1.03400
C980        C  0.99976677  0.92617989  0.57398118     1.02100
C981        C  0.07392864  0.49986967  0.92611660     1.01500
C982        C  0.42606238  0.50035329  0.92610606     1.03500
C983        C  0.42604847  0.49986833  0.57397238     1.02400
C984        C  0.07392130  0.50035369  0.57398752     1.01200
C985        C  0.07393787  0.92618525  0.49979092     1.01300
C986        C  0.42606897  0.92618038  0.50030104     1.03900
H987        H  0.04142761  0.95870095  0.54145775     0.31300
O988        O  0.02939647  0.97073019  0.52943073    -1.04000
H989        H  0.45857745  0.95869817  0.95863851     0.33300
O990        O  0.47060864  0.97072765  0.97066499    -1.06500
O991        O  0.00021909  0.70268707  0.66762992    -0.79100
O992        O  0.99979655  0.70268453  0.83246383    -0.80600
O993        O  0.04742271  0.66769574  0.74983660    -0.77700
O994        O  0.45257307  0.66769408  0.75025716    -0.76100
O995        O  0.41758197  0.70268485  0.75025773    -0.77800
O996        O  0.08241144  0.70268918  0.74984450    -0.78800
O997        O  0.99980098  0.66769446  0.79747130    -0.80100
O998        O  0.00022059  0.66769606  0.70262110    -0.80400
Eu999      Eu  0.99999821  0.69148973  0.75004713     2.39200
O1000       O  0.47066299  0.72077568  0.77938387    -0.87900
O1001       O  0.02933061  0.72078159  0.72071542    -0.91500
C1002       C  0.00025186  0.67617842  0.67611247     1.03200
C1003       C  0.99977513  0.67617596  0.82398008     1.03000
C1004       C  0.07393056  0.67617996  0.74981303     1.02900
C1005       C  0.42606447  0.67617627  0.75028562     1.00800
H1006       H  0.04141588  0.70869723  0.79146812     0.30600
O1007       O  0.02938580  0.72072552  0.77943885    -1.00300
H1008       H  0.45857794  0.70868875  0.70862342     0.30600
O1009       O  0.47060644  0.72071858  0.72065281    -1.02800
O1010       O  0.00020176  0.79754326  0.83246305    -0.80100
O1011       O  0.99978036  0.79753800  0.66762756    -0.79600
O1012       O  0.08240776  0.75032982  0.79747744    -0.78000
O1013       O  0.41757837  0.74990290  0.79746941    -0.81400
O1014       O  0.41758014  0.75032117  0.70262362    -0.79200
O1015       O  0.08241170  0.74989968  0.70261955    -0.77900
O1016       O  0.04742846  0.83253262  0.75026575    -0.79400
O1017       O  0.45257360  0.83252745  0.74983000    -0.81300
O1018       O  0.08241763  0.79753999  0.75026492    -0.78100
O1019       O  0.41758395  0.79753466  0.74982875    -0.80700
O1020       O  0.04741831  0.75032755  0.83247000    -0.76500
O1021       O  0.04742152  0.74989799  0.66762736    -0.76500
O1022       O  0.45256990  0.75032382  0.66763194    -0.76100
O1023       O  0.45256633  0.74990102  0.83246368    -0.79600
O1024       O  0.00020503  0.83253473  0.79747192    -0.79100
O1025       O  0.99978203  0.83252946  0.70261849    -0.77400
Eu1026     Eu  0.99999407  0.75011371  0.80867326     2.39800
Eu1027     Eu  0.99999786  0.75011320  0.69142336     2.39600
Eu1028     Eu  0.05861930  0.75011607  0.75004843     2.38400
Eu1029     Eu  0.44137703  0.75010990  0.75004701     2.39900
Eu1030     Eu  0.00000024  0.80873832  0.75004709     2.39800
O1031       O  0.47066765  0.77944471  0.72071643    -0.91800
O1032       O  0.02932832  0.77944663  0.77938322    -0.90700
C1033       C  0.00023052  0.82405214  0.82398057     1.03400
C1034       C  0.99975155  0.82404678  0.67610974     1.02100
C1035       C  0.07392645  0.75035755  0.82398636     1.01500
C1036       C  0.42605849  0.74987414  0.82397869     1.03500
C1037       C  0.42606152  0.75035121  0.67611493     1.02400
C1038       C  0.07392992  0.74986889  0.67611022     1.01200
C1039       C  0.07393712  0.82404930  0.75029543     1.01300
C1040       C  0.42606571  0.82404340  0.74979894     1.03900
H1041       H  0.04142081  0.79153729  0.70862411     0.31300
O1042       O  0.02939110  0.77950814  0.72065313    -1.04000
H1043       H  0.45857590  0.79153476  0.79146540     0.33300
O1044       O  0.47060663  0.77950539  0.77943755    -1.06500
O1045       O  0.33244241  0.99991273  0.70264374    -0.79100
O1046       O  0.16760386  0.00033241  0.70259918    -0.80600
O1047       O  0.25023767  0.95269529  0.66762412    -0.77700
O1048       O  0.24979413  0.54753977  0.66762530    -0.76100
O1049       O  0.24978921  0.58253146  0.70261543    -0.77800
O1050       O  0.25022524  0.91770304  0.70261423    -0.78800
O1051       O  0.20260209  0.00033340  0.66761593    -0.80100
O1052       O  0.29745654  0.99990867  0.66764686    -0.80400
Eu1053     Eu  0.25002176  0.00011658  0.69142329     2.39200
O1054       O  0.22066477  0.52944742  0.72070963    -0.87900
O1055       O  0.27934928  0.97078567  0.72072168    -0.91500
C1056       C  0.32396368  0.99988307  0.67613419     1.03200
C1057       C  0.17609150  0.00036336  0.67609200     1.03000
C1058       C  0.25026006  0.92618657  0.67610574     1.02900
C1059       C  0.24976278  0.57404850  0.67610680     1.00800
H1060       H  0.20859704  0.95869213  0.70861529     0.30600
O1061       O  0.22062436  0.97072095  0.72064694    -1.00300
H1062       H  0.29142450  0.54154002  0.70862769     0.30600
O1063       O  0.27939407  0.52951071  0.72065585    -1.02800
O1064       O  0.16758501  0.99991023  0.79745513    -0.80100
O1065       O  0.33242096  0.00034193  0.79749091    -0.79600
O1066       O  0.20258926  0.91769099  0.75025735    -0.78000
O1067       O  0.20257173  0.58253457  0.74983045    -0.81400
O1068       O  0.29742039  0.58253552  0.75025717    -0.79200
O1069       O  0.29743769  0.91769733  0.74982845    -0.77900
O1070       O  0.24978390  0.95269006  0.83246603    -0.79400
O1071       O  0.25019957  0.54754281  0.83245990    -0.81300
O1072       O  0.24978951  0.91769945  0.79747424    -0.78100
O1073       O  0.25020872  0.58253398  0.79746878    -0.80700
O1074       O  0.16759778  0.95268178  0.75024853    -0.76500
O1075       O  0.33242817  0.95268940  0.74984209    -0.76500
O1076       O  0.33241155  0.54754457  0.75026347    -0.76100
O1077       O  0.16758033  0.54754345  0.74983000    -0.79600
O1078       O  0.20257039  0.99991005  0.83245250    -0.79100
O1079       O  0.29742303  0.00033550  0.83247440    -0.77400
Eu1080     Eu  0.19138653  0.00011257  0.75003283     2.39800
Eu1081     Eu  0.30863560  0.00011723  0.75006046     2.39600
Eu1082     Eu  0.25001260  0.94149039  0.75004527     2.38400
Eu1083     Eu  0.24999575  0.55873924  0.75004359     2.39900
Eu1084     Eu  0.25000311  0.00011424  0.80866912     2.39800
O1085       O  0.27932201  0.52944801  0.77938215    -0.91800
O1086       O  0.22067592  0.97078281  0.77937089    -0.90700
C1087       C  0.17606276  0.99988393  0.82396548     1.03400
C1088       C  0.32393311  0.00037023  0.82399763     1.02100
C1089       C  0.17608039  0.92617275  0.75028244     1.01500
C1090       C  0.17606318  0.57405234  0.74980240     1.03500
C1091       C  0.32392896  0.57405311  0.75028826     1.02400
C1092       C  0.32394589  0.92618045  0.74980420     1.01200
C1093       C  0.24975505  0.92618150  0.82398320     1.01300
C1094       C  0.25023331  0.57405153  0.82397741     1.03900
H1095       H  0.29143075  0.95868985  0.79147696     0.31300
O1096       O  0.27940296  0.97071879  0.77944611    -1.04000
H1097       H  0.20856882  0.54153728  0.79146059     0.33300
O1098       O  0.22059912  0.52950740  0.77943245    -1.06500
O1099       O  0.20256914  0.66769925  0.00026176    -0.79100
O1100       O  0.20257237  0.83253395  0.99982895    -0.80600
O1101       O  0.16757705  0.74990697  0.54746665    -0.77700
O1102       O  0.16758462  0.75033442  0.95261324    -0.76100
O1103       O  0.20257689  0.75032720  0.91762373    -0.77800
O1104       O  0.20256632  0.74990410  0.58245977    -0.78800
O1105       O  0.16757916  0.79754484  0.99982375    -0.80100
O1106       O  0.16757973  0.70269175  0.00025743    -0.80400
Eu1107     Eu  0.19137312  0.75011997  0.00004161     2.39200
O1108       O  0.22066961  0.77944988  0.97071164    -0.87900
O1109       O  0.22066098  0.72078771  0.52937572    -0.91500
C1110       C  0.17606091  0.67618230  0.00028919     1.03200
C1111       C  0.17606316  0.82405284  0.99979605     1.03000
C1112       C  0.17605807  0.74987570  0.57397593     1.02900
C1113       C  0.17606804  0.75036043  0.92610513     1.00800
H1114       H  0.20857341  0.79154254  0.54146510     0.30600
O1115       O  0.22060288  0.77951250  0.52943672    -1.00300
H1116       H  0.20857445  0.70869682  0.95862176     0.30600
O1117       O  0.22060373  0.72072580  0.97065113    -1.02800
O1118       O  0.29742789  0.83253257  0.00026056    -0.80100
O1119       O  0.29741760  0.66769751  0.99983460    -0.79600
O1120       O  0.25020777  0.79754295  0.58246398    -0.78000
O1121       O  0.24978504  0.79754323  0.91763187    -0.81400
O1122       O  0.25021390  0.70268493  0.91763211    -0.79200
O1123       O  0.24976886  0.70269127  0.58246176    -0.77900
O1124       O  0.33241277  0.75032411  0.54747667    -0.79400
O1125       O  0.33241469  0.74990238  0.95261940    -0.81300
O1126       O  0.29741908  0.75032705  0.58246492    -0.78100
O1127       O  0.29742428  0.74990212  0.91762724    -0.80700
O1128       O  0.25021256  0.83253395  0.54747289    -0.76500
O1129       O  0.24976902  0.66770040  0.54747061    -0.76500
O1130       O  0.25019961  0.66769469  0.95262382    -0.76100
O1131       O  0.24978522  0.83253499  0.95262260    -0.79600
O1132       O  0.33241751  0.79753984  0.00026333    -0.79100
O1133       O  0.33241120  0.70268618  0.99983292    -0.77400
Eu1134     Eu  0.25000001  0.80874062  0.00004680     2.39800
Eu1135     Eu  0.24999334  0.69149447  0.00004607     2.39600
Eu1136     Eu  0.24999341  0.75011799  0.55866860     2.38400
Eu1137     Eu  0.25000062  0.75011466  0.94142204     2.39900
Eu1138     Eu  0.30862200  0.75011389  0.00004798     2.39800
O1139       O  0.27933157  0.72078085  0.97071409    -0.91800
O1140       O  0.27933086  0.77944795  0.52937961    -0.90700
C1141       C  0.32393632  0.82404910  0.00029121     1.03400
C1142       C  0.32392675  0.67617825  0.99980455     1.02100
C1143       C  0.25024023  0.82405156  0.57398146     1.01500
C1144       C  0.24975416  0.82405209  0.92611428     1.03500
C1145       C  0.25023457  0.67617618  0.92611503     1.02400
C1146       C  0.24973743  0.67618253  0.57397913     1.01200
C1147       C  0.32392848  0.75035395  0.57398477     1.01300
C1148       C  0.32393250  0.74987327  0.92611029     1.03900
H1149       H  0.29141352  0.70869363  0.54146994     0.31300
O1150       O  0.27938662  0.72072393  0.52943974    -1.04000
H1151       H  0.29142135  0.79153556  0.95862730     0.33300
O1152       O  0.27939139  0.77950644  0.97065611    -1.06500
C1153       C  0.24982549  0.59594389  0.65420902    -0.17500
C1154       C  0.24990229  0.61434023  0.63581095     0.06600
C1155       C  0.24989187  0.63588534  0.61426931     0.08400
C1156       C  0.24980189  0.65428505  0.59587469    -0.18300
C1157       C  0.25017832  0.84594826  0.59587735    -0.17500
C1158       C  0.25009846  0.86434728  0.61427236     0.06600
C1159       C  0.25010335  0.88589321  0.63581259     0.08400
C1160       C  0.25019139  0.90429125  0.65420854    -0.18300
C1161       C  0.24981509  0.90428475  0.84587947    -0.17500
C1162       C  0.24989603  0.88588789  0.86427686     0.06600
C1163       C  0.24989529  0.86434541  0.88582083     0.08400
C1164       C  0.24981423  0.84594852  0.90421807    -0.18300
C1165       C  0.25016702  0.59594781  0.84587425    -0.17500
C1166       C  0.25008147  0.61434279  0.86427366     0.06600
C1167       C  0.25008032  0.63588310  0.88582023     0.08400
C1168       C  0.25016556  0.65427890  0.90421891    -0.18300
C1169       C  0.34582560  0.59594883  0.75021920    -0.17500
C1170       C  0.36422486  0.61434344  0.75013292     0.06600
C1171       C  0.38577038  0.63588392  0.75013242     0.08400
C1172       C  0.40416828  0.65427994  0.75021770    -0.18300
C1173       C  0.34584141  0.90428370  0.74986520    -0.17500
C1174       C  0.36423500  0.88588352  0.74994641     0.06600
C1175       C  0.38577395  0.86433684  0.74994513     0.08400
C1176       C  0.40416923  0.84593855  0.74986189    -0.18300
C1177       C  0.15416741  0.59594950  0.74987229    -0.17500
C1178       C  0.13577044  0.61434672  0.74996087     0.06600
C1179       C  0.11422638  0.63588909  0.74996491     0.08400
C1180       C  0.09582820  0.65428502  0.74988145    -0.18300
C1181       C  0.15418374  0.90427515  0.75021801    -0.17500
C1182       C  0.13578525  0.88587858  0.75013690     0.06600
C1183       C  0.11423771  0.86433823  0.75014235     0.08400
C1184       C  0.09583631  0.84594455  0.75022995    -0.18300
C1185       C  0.40416395  0.75028474  0.65421926    -0.17500
C1186       C  0.38576552  0.75020057  0.63582316     0.06600
C1187       C  0.36422094  0.75020115  0.61428065     0.08400
C1188       C  0.34582368  0.75028640  0.59588324    -0.18300
C1189       C  0.09582622  0.74993353  0.65421304    -0.17500
C1190       C  0.11422151  0.75001856  0.63581389     0.06600
C1191       C  0.13576360  0.75002104  0.61426904     0.08400
C1192       C  0.15416055  0.74993924  0.59587162    -0.18300
C1193       C  0.15417176  0.75029566  0.90420868    -0.17500
C1194       C  0.13577216  0.75021073  0.88581411     0.06600
C1195       C  0.11422503  0.75020837  0.86427481     0.08400
C1196       C  0.09582455  0.75029146  0.84588108    -0.18300
C1197       C  0.40416038  0.74994252  0.84587266    -0.17500
C1198       C  0.38576326  0.75002703  0.86426920     0.06600
C1199       C  0.36422225  0.75002529  0.88581396     0.08400
C1200       C  0.34582795  0.74993966  0.90421337    -0.18300
C1201       C  0.34583407  0.84594504  0.50022564    -0.17500
C1202       C  0.36423191  0.86434190  0.50014313     0.06600
C1203       C  0.38577557  0.88588550  0.50014710     0.08400
C1204       C  0.40417263  0.90428310  0.50023449    -0.18300
C1205       C  0.34582222  0.65428143  0.49987050    -0.17500
C1206       C  0.36422276  0.63588804  0.49995512     0.06600
C1207       C  0.38577105  0.61435022  0.49995454     0.08400
C1208       C  0.40417046  0.59595560  0.49986868    -0.18300
C1209       C  0.15416766  0.84594970  0.49985978    -0.17500
C1210       C  0.13577048  0.86434635  0.49994325     0.06600
C1211       C  0.11422869  0.88589034  0.49994200     0.08400
C1212       C  0.09583359  0.90428895  0.49985634    -0.18300
C1213       C  0.15416403  0.65428518  0.50022373    -0.17500
C1214       C  0.13576886  0.63588548  0.50014001     0.06600
C1215       C  0.11422702  0.61433979  0.50014195     0.08400
C1216       C  0.09582916  0.59594289  0.50022741    -0.18300
C1217       C  0.34581181  0.50029665  0.84589023    -0.17500
C1218       C  0.36421457  0.50020929  0.86428148     0.06600
C1219       C  0.38576657  0.50020460  0.88581554     0.08400
C1220       C  0.40416801  0.50028670  0.90420804    -0.18300
C1221       C  0.09582673  0.49993608  0.90422105    -0.17500
C1222       C  0.11421628  0.00002265  0.88579550     0.06600
C1223       C  0.13576068  0.00003340  0.86425233     0.08400
C1224       C  0.15414888  0.49994425  0.84586655    -0.18300
C1225       C  0.15417679  0.50029139  0.65420237    -0.17500
C1226       C  0.13577664  0.50020554  0.63580790     0.06600
C1227       C  0.11422449  0.50020275  0.61427283     0.08400
C1228       C  0.09581974  0.50028617  0.59588284    -0.18300
C1229       C  0.40415368  0.49993336  0.59586967    -0.17500
C1230       C  0.38579534  0.00001327  0.61429728     0.06600
C1231       C  0.36425828  0.00002578  0.63584477     0.08400
C1232       C  0.34584030  0.49994242  0.65422948    -0.18300
C1233       C  0.99984584  0.59593776  0.90420851    -0.17500
C1234       C  0.49993839  0.61433368  0.88581048     0.06600
C1235       C  0.49994207  0.63587818  0.86426882     0.08400
C1236       C  0.99985326  0.65427792  0.84587456    -0.18300
C1237       C  0.00015942  0.84594838  0.84587732    -0.17500
C1238       C  0.00007007  0.86434384  0.86427608     0.06600
C1239       C  0.50006567  0.88588505  0.88582134     0.08400
C1240       C  0.00015067  0.90428147  0.90421910    -0.18300
C1241       C  0.99983117  0.90428303  0.59587733    -0.17500
C1242       C  0.49991215  0.88588502  0.61427365     0.06600
C1243       C  0.99990736  0.86434052  0.63581587     0.08400
C1244       C  0.99981900  0.84594309  0.65421281    -0.18300
C1245       C  0.00019189  0.65428178  0.65421623    -0.17500
C1246       C  0.50010789  0.63588425  0.63581957     0.06600
C1247       C  0.50010196  0.61434109  0.61427630     0.08400
C1248       C  0.00017860  0.59594485  0.59587833    -0.18300
O1249       O  0.50022105  0.04754079  0.08246509    -0.79100
O1250       O  0.49978661  0.04753517  0.41762717    -0.80600
O1251       O  0.54742755  0.08253597  0.00024804    -0.77700
O1252       O  0.95257614  0.08253792  0.99984297    -0.76100
O1253       O  0.91758699  0.04754471  0.99985049    -0.77800
O1254       O  0.58241856  0.04754470  0.00024156    -0.78800
O1255       O  0.49978028  0.08252918  0.45261567    -0.80100
O1256       O  0.50023465  0.08253271  0.04747436    -0.80400
Eu1257     Eu  0.50000180  0.05874179  0.00004603     2.39200
O1258       O  0.97066878  0.02944395  0.47072205    -0.87900
O1259       O  0.52933493  0.02944551  0.02937135    -0.91500
C1260       C  0.50025928  0.07404960  0.07398296     1.03200
C1261       C  0.49975515  0.07404434  0.42610761     1.03000
C1262       C  0.57393603  0.07405333  0.00027219     1.02900
C1263       C  0.92606778  0.07405408  0.99981871     1.00800
H1264       H  0.54141978  0.04154219  0.45861359     0.30600
O1265       O  0.52939228  0.02951378  0.47064585    -1.00300
H1266       H  0.95858465  0.04154311  0.04147905     0.30600
O1267       O  0.97061206  0.02951395  0.02944738    -1.02800
O1268       O  0.50020785  0.45268593  0.41763367    -0.80100
O1269       O  0.49976990  0.45268805  0.08246441    -0.79600
O1270       O  0.58241415  0.99990162  0.45260317    -0.78000
O1271       O  0.91758263  0.00032460  0.45263677    -0.81400
O1272       O  0.91758821  0.99989518  0.04748725    -0.79200
O1273       O  0.58242574  0.00032552  0.04745535    -0.77900
O1274       O  0.54742826  0.41770589  0.99983708    -0.79400
O1275       O  0.95257259  0.41769373  0.00025721    -0.81300
O1276       O  0.58241702  0.45269892  0.99983951    -0.78100
O1277       O  0.91757920  0.45268310  0.00024799    -0.80700
O1278       O  0.54741760  0.99989160  0.41761826    -0.76500
O1279       O  0.54744160  0.00031378  0.08245346    -0.76500
O1280       O  0.95258604  0.99988933  0.08247139    -0.76100
O1281       O  0.95256861  0.00032026  0.41764052    -0.79200
O1282       O  0.50021006  0.41769476  0.45262465    -0.79100
O1283       O  0.49977778  0.41769622  0.04747392    -0.77400
Eu1284     Eu  0.49999785  0.00011278  0.44142504     2.39800
Eu1285     Eu  0.50000786  0.00011528  0.05867065     2.39600
Eu1286     Eu  0.55862540  0.00011850  0.00003262     2.38400
Eu1287     Eu  0.94137905  0.00011671  0.00006078     2.39900
Eu1288     Eu  0.49999566  0.44149083  0.00004867     2.39800
O1289       O  0.97065748  0.47078279  0.02937517    -0.91800
O1290       O  0.52932864  0.47078079  0.47071633    -0.90700
C1291       C  0.50023748  0.42617722  0.42611617     1.03400
C1292       C  0.49974446  0.42617903  0.07398240     1.02100
C1293       C  0.57392784  0.99986617  0.42609565     1.01500
C1294       C  0.92606155  0.00034978  0.42612713     1.03500
C1295       C  0.92607605  0.99986021  0.07399399     1.02400
C1296       C  0.57394896  0.00034578  0.07396583     1.01200
C1297       C  0.57393656  0.42619007  0.99980880     1.01300
C1298       C  0.92606370  0.42617472  0.00028015     1.03900
H1299       H  0.54141049  0.45869445  0.04147487     0.31300
O1300       O  0.52938197  0.47072320  0.02944422    -1.04000
H1301       H  0.95857629  0.45869214  0.45862437     0.33300
O1302       O  0.97060358  0.47072188  0.47065485    -1.06500
O1303       O  0.50021638  0.20268312  0.16763434    -0.79100
O1304       O  0.49978946  0.20268905  0.33246801    -0.80600
O1305       O  0.54742739  0.16769495  0.24983809    -0.77700
O1306       O  0.95257600  0.16769790  0.25025860    -0.76100
O1307       O  0.91758497  0.20268916  0.25025574    -0.77800
O1308       O  0.58241799  0.20268600  0.24983617    -0.78800
O1309       O  0.49979564  0.16769887  0.29747590    -0.80100
O1310       O  0.50021826  0.16769307  0.20262672    -0.80400
Eu1311     Eu  0.50000084  0.19149070  0.25004908     2.39200
O1312       O  0.97066320  0.22078011  0.27937944    -0.87900
O1313       O  0.52933099  0.22077879  0.22071182    -0.91500
C1314       C  0.50024873  0.17617465  0.17611800     1.03200
C1315       C  0.49976675  0.17618059  0.32398470     1.03000
C1316       C  0.57393626  0.17617701  0.24980916     1.02900
C1317       C  0.92606777  0.17618077  0.25028545     1.00800
H1318       H  0.54141907  0.20869426  0.29147088     0.30600
O1319       O  0.52938940  0.22072291  0.27944159    -1.00300
H1320       H  0.95858000  0.20869141  0.20862582     0.30600
O1321       O  0.97060851  0.22072136  0.22065492    -1.02800
O1322       O  0.50020849  0.29753878  0.33246721    -0.80100
O1323       O  0.49978303  0.29754198  0.16763197    -0.79600
O1324       O  0.58241283  0.25032359  0.29747179    -0.78000
O1325       O  0.91757332  0.24990901  0.29746365    -0.81400
O1326       O  0.91758121  0.25032716  0.20262020    -0.79200
O1327       O  0.58241072  0.24989364  0.20261623    -0.77900
O1328       O  0.54742560  0.33252885  0.25026732    -0.79400
O1329       O  0.95256886  0.33252821  0.24983143    -0.81300
O1330       O  0.58241467  0.29753568  0.25026325    -0.78100
O1331       O  0.91757734  0.29753783  0.24982034    -0.80700
O1332       O  0.54742234  0.25032740  0.33246339    -0.76500
O1333       O  0.54742061  0.24989980  0.16762395    -0.76500
O1334       O  0.95257090  0.25032216  0.16762843    -0.76100
O1335       O  0.95256223  0.24990124  0.33245705    -0.79600
O1336       O  0.50021040  0.33253036  0.29747650    -0.79100
O1337       O  0.49978450  0.33253250  0.20262408    -0.77400
Eu1338     Eu  0.49999400  0.25011372  0.30867176     2.39800
Eu1339     Eu  0.49999792  0.25011324  0.19142196     2.39600
Eu1340     Eu  0.55862030  0.25011087  0.25004548     2.38400
Eu1341     Eu  0.94137606  0.25011513  0.25004396     2.39900
Eu1342     Eu  0.49999769  0.30873739  0.25004905     2.39800
O1343       O  0.97066736  0.27944753  0.22071283    -0.91800
O1344       O  0.52932811  0.27944221  0.27937893    -0.90700
C1345       C  0.50023871  0.32404758  0.32398515     1.03400
C1346       C  0.49975467  0.32405058  0.17611523     1.02100
C1347       C  0.57393095  0.25035443  0.32398050     1.01500
C1348       C  0.92605394  0.24987721  0.32397274     1.03500
C1349       C  0.92606259  0.25035317  0.17611169     1.02400
C1350       C  0.57392893  0.24986700  0.17610709     1.01200
C1351       C  0.57393386  0.32404481  0.25029549     1.01300
C1352       C  0.92605996  0.32404633  0.24979497     1.03900
H1353       H  0.54141895  0.29153483  0.20862653     0.31300
O1354       O  0.52938914  0.27950540  0.22065532    -1.04000
H1355       H  0.95857260  0.29153774  0.29146816     0.33300
O1356       O  0.97060304  0.27950795  0.27944019    -1.06500
O1357       O  0.83242215  0.49990311  0.20263346    -0.79100
O1358       O  0.66758342  0.50032275  0.20260949    -0.80600
O1359       O  0.75022311  0.45269529  0.16762428    -0.77700
O1360       O  0.74980901  0.04753993  0.16762556    -0.76100
O1361       O  0.74978953  0.08253096  0.20261618    -0.77800
O1362       O  0.75022486  0.41770363  0.20261480    -0.78800
O1363       O  0.70258038  0.50033338  0.16762455    -0.80100
O1364       O  0.79743490  0.49990868  0.16763840    -0.80400
Eu1365     Eu  0.75000457  0.50011734  0.19142332     2.39200
O1366       O  0.72067816  0.02944879  0.22070367    -0.87900
O1367       O  0.77933578  0.47078431  0.22071584    -0.91500
C1368       C  0.82394255  0.49987699  0.17612393     1.03200
C1369       C  0.67607027  0.50035729  0.17610232     1.03000
C1370       C  0.75025483  0.42618661  0.17610624     1.02900
C1371       C  0.74976817  0.07404862  0.17610746     1.00800
H1372       H  0.70858371  0.45869444  0.20862072     0.30600
O1373       O  0.72061018  0.47072430  0.22065154    -1.00300
H1374       H  0.79143796  0.04153767  0.20863298     0.30600
O1375       O  0.77940815  0.02950716  0.22066052    -1.02800
O1376       O  0.66756602  0.49990216  0.29746050    -0.80100
O1377       O  0.83240182  0.50033380  0.29748555    -0.79600
O1378       O  0.70257877  0.41769265  0.25025452    -0.78000
O1379       O  0.70258081  0.08253085  0.24983678    -0.81400
O1380       O  0.79743079  0.08253381  0.25025435    -0.79200
O1381       O  0.79742860  0.41770099  0.24983457    -0.77900
O1382       O  0.74977075  0.45268866  0.33246313    -0.79400
O1383       O  0.75021272  0.04754419  0.33245715    -0.81300
O1384       O  0.74978361  0.41769867  0.29747082    -0.78100
O1385       O  0.75021462  0.08253465  0.29746542    -0.80700
O1386       O  0.66758468  0.45268107  0.25025633    -0.76500
O1387       O  0.83241757  0.45269406  0.24983876    -0.76500
O1388       O  0.83242464  0.04754533  0.25027128    -0.76100
O1389       O  0.66759090  0.04753878  0.24982671    -0.79600
O1390       O  0.70255442  0.49990678  0.33245434    -0.79100
O1391       O  0.79740691  0.50033216  0.33247256    -0.77400
Eu1392     Eu  0.69137044  0.50011341  0.25003913     2.39800
Eu1393     Eu  0.80861953  0.50011811  0.25005410     2.39600
Eu1394     Eu  0.75000112  0.44149230  0.25004447     2.38400
Eu1395     Eu  0.75000719  0.05873721  0.25004280     2.39900
Eu1396     Eu  0.74998568  0.50011509  0.30866903     2.39800
O1397       O  0.77933774  0.02945042  0.27938418    -0.91800
O1398       O  0.72066017  0.47078028  0.27937293    -0.90700
C1399       C  0.67604620  0.49987648  0.32397010     1.03400
C1400       C  0.82391640  0.50036272  0.32399301     1.02100
C1401       C  0.67606944  0.42617271  0.25028549     1.01500
C1402       C  0.67607230  0.07404796  0.24980527     1.03500
C1403       C  0.82393984  0.07405318  0.25029132     1.02400
C1404       C  0.82393674  0.42618480  0.24980695     1.01200
C1405       C  0.74974724  0.42618012  0.32397980     1.01300
C1406       C  0.75024117  0.07405287  0.32397410     1.03900
H1407       H  0.79141400  0.45869620  0.29147339     0.31300
O1408       O  0.77938585  0.47072478  0.27944274    -1.04000
H1409       H  0.70858556  0.04153081  0.29145706     0.33300
O1410       O  0.72061614  0.02950139  0.27942922    -1.06500
O1411       O  0.70256896  0.16770422  0.50025662    -0.79100
O1412       O  0.70257067  0.33253383  0.49982758    -0.80600
O1413       O  0.66758084  0.24990419  0.04747195    -0.77700
O1414       O  0.66758142  0.25033454  0.45261727    -0.76100
O1415       O  0.70257457  0.25032852  0.41762865    -0.77800
O1416       O  0.70257005  0.24990278  0.08246506    -0.78800
O1417       O  0.66757750  0.29754481  0.49983239    -0.80100
O1418       O  0.66757740  0.20269482  0.50025704    -0.80400
Eu1419     Eu  0.69137270  0.25011926  0.50004435     2.39200
O1420       O  0.72066714  0.27944826  0.47071234    -0.87900
O1421       O  0.72066253  0.22078589  0.02937676    -0.91500
C1422       C  0.67606046  0.17618643  0.50028575     1.03200
C1423       C  0.67606140  0.32405312  0.49980039     1.03000
C1424       C  0.67606207  0.24987343  0.07398113     1.02900
C1425       C  0.67606535  0.25036024  0.42610923     1.00800
H1426       H  0.70857349  0.29154097  0.04146547     0.30600
O1427       O  0.72060329  0.27951118  0.02943702    -1.00300
H1428       H  0.70857435  0.20869616  0.45862192     0.30600
O1429       O  0.72060326  0.22072517  0.47065181    -1.02800
O1430       O  0.79742806  0.33252752  0.50025541    -0.80100
O1431       O  0.79741927  0.16769766  0.49983325    -0.79600
O1432       O  0.75020271  0.29754630  0.08246076    -0.78000
O1433       O  0.74978786  0.29753864  0.41762785    -0.81400
O1434       O  0.75021133  0.20268948  0.41762805    -0.79200
O1435       O  0.74977397  0.20268793  0.08245850    -0.77900
O1436       O  0.83240905  0.25032667  0.04748179    -0.79400
O1437       O  0.83241782  0.24990219  0.45262346    -0.81300
O1438       O  0.79741554  0.25032834  0.08247013    -0.78100
O1439       O  0.79742656  0.24990070  0.41763217    -0.80700
O1440       O  0.75020583  0.33253693  0.04746905    -0.76500
O1441       O  0.74977557  0.16769742  0.04746676    -0.76500
O1442       O  0.75020571  0.16769832  0.45261857    -0.76100
O1443       O  0.74977901  0.33253132  0.45261739    -0.79600
O1444       O  0.83241987  0.29753673  0.50026293    -0.79100
O1445       O  0.83241283  0.20268623  0.49984142    -0.77400
Eu1446     Eu  0.74999776  0.30874018  0.50004499     2.39800
Eu1447     Eu  0.74999555  0.19149488  0.50004421     2.39600
Eu1448     Eu  0.74999349  0.25011800  0.05866973     2.38400
Eu1449     Eu  0.75000061  0.25011463  0.44142388     2.39900
Eu1450     Eu  0.80862244  0.25011461  0.50005075     2.39800
O1451       O  0.77933404  0.22078251  0.47071485    -0.91800
O1452       O  0.77932942  0.27944981  0.02938059    -0.90700
C1453       C  0.82393679  0.32404492  0.50028773     1.03400
C1454       C  0.82392847  0.17617800  0.49980887     1.02100
C1455       C  0.75023336  0.32405493  0.07397778     1.01500
C1456       C  0.74975279  0.32404763  0.42610908     1.03500
C1457       C  0.75023599  0.17618061  0.42610979     1.02400
C1458       C  0.74974428  0.17617918  0.07397543     1.01200
C1459       C  0.82392461  0.25035606  0.07398981     1.01300
C1460       C  0.82393514  0.24987336  0.42611443     1.03900
H1461       H  0.79141349  0.20869506  0.04147023     0.31300
O1462       O  0.77938620  0.22072528  0.02943989    -1.04000
H1463       H  0.79142136  0.29153612  0.45862749     0.33300
O1464       O  0.77939169  0.27950689  0.47065694    -1.06500
C1465       C  0.74982647  0.09594476  0.15421019    -0.17500
C1466       C  0.74990294  0.11434058  0.13581147     0.06600
C1467       C  0.74989601  0.13588348  0.11426743     0.08400
C1468       C  0.74980900  0.15428153  0.09587103    -0.18300
C1469       C  0.75017134  0.34595183  0.09587366    -0.17500
C1470       C  0.75009448  0.36434929  0.11427036     0.06600
C1471       C  0.75010286  0.38589310  0.13581289     0.08400
C1472       C  0.75019057  0.40429060  0.15420950    -0.18300
C1473       C  0.74981144  0.40428234  0.34587524    -0.17500
C1474       C  0.74989499  0.38588367  0.36427098     0.06600
C1475       C  0.74989567  0.36433958  0.38581366     0.08400
C1476       C  0.74981418  0.34594295  0.40421138    -0.18300
C1477       C  0.75017076  0.09595021  0.34587006    -0.17500
C1478       C  0.75008251  0.11434701  0.36426780     0.06600
C1479       C  0.75007986  0.13588891  0.38581309     0.08400
C1480       C  0.75016557  0.15428446  0.40421222    -0.18300
C1481       C  0.84583426  0.09595054  0.25022391    -0.17500
C1482       C  0.86423165  0.11434666  0.25013771     0.06600
C1483       C  0.88577523  0.13588840  0.25013502     0.08400
C1484       C  0.90417207  0.15428499  0.25021831    -0.18300
C1485       C  0.84583396  0.40428889  0.24987010    -0.17500
C1486       C  0.86422892  0.38588949  0.24995007     0.06600
C1487       C  0.88576869  0.36434255  0.24994479     0.08400
C1488       C  0.90416386  0.34594339  0.24985851    -0.18300
C1489       C  0.65417482  0.09594427  0.24987724    -0.17500
C1490       C  0.63577648  0.11434071  0.24996452     0.06600
C1491       C  0.61423167  0.13588342  0.24996463     0.08400
C1492       C  0.59583358  0.15428020  0.24987822    -0.18300
C1493       C  0.65417496  0.40427355  0.25022267    -0.17500
C1494       C  0.63577840  0.38587543  0.25014157     0.06600
C1495       C  0.61423291  0.36433373  0.25014496     0.08400
C1496       C  0.59583259  0.34593948  0.25023071    -0.18300
C1497       C  0.90416455  0.25028606  0.15421719    -0.17500
C1498       C  0.88576398  0.25020185  0.13582369     0.06600
C1499       C  0.86421750  0.25020323  0.11428388     0.08400
C1500       C  0.84581947  0.25028884  0.09588776    -0.18300
C1501       C  0.59582568  0.24993231  0.15421106    -0.17500
C1502       C  0.61422318  0.25001736  0.13581459     0.06600
C1503       C  0.63576722  0.25001895  0.11427250     0.08400
C1504       C  0.65416496  0.24993665  0.09587638    -0.18300
C1505       C  0.65416972  0.25029178  0.40421146    -0.17500
C1506       C  0.63577217  0.25020483  0.38581443     0.06600
C1507       C  0.61422748  0.25020357  0.36427201     0.08400
C1508       C  0.59582863  0.25028801  0.34587626    -0.18300
C1509       C  0.90415623  0.24994585  0.34586776    -0.17500
C1510       C  0.88576083  0.25003167  0.36426643     0.06600
C1511       C  0.86422230  0.25003102  0.38581438     0.08400
C1512       C  0.84582999  0.24994342  0.40421622    -0.18300
C1513       C  0.84583294  0.34594050  0.00021998    -0.17500
C1514       C  0.86423112  0.36433585  0.00013237     0.06600
C1515       C  0.88577435  0.38587814  0.00012802     0.08400
C1516       C  0.90416973  0.40427646  0.00021138    -0.18300
C1517       C  0.84582325  0.15427944  0.99987645    -0.17500
C1518       C  0.86422070  0.13588237  0.99996309     0.06600
C1519       C  0.88576755  0.11434211  0.99996681     0.08400
C1520       C  0.90416891  0.09594884  0.99988503    -0.18300
C1521       C  0.65416658  0.34595166  0.99986559    -0.17500
C1522       C  0.63577253  0.36435203  0.99995093     0.06600
C1523       C  0.61423205  0.38589834  0.99995405     0.08400
C1524       C  0.59583496  0.40429556  0.99987265    -0.18300
C1525       C  0.65416521  0.15428964  0.00021801    -0.17500
C1526       C  0.63576973  0.13589140  0.00012930     0.06600
C1527       C  0.61422830  0.11434706  0.00012300     0.08400
C1528       C  0.59583208  0.09594949  0.00020439    -0.18300
C1529       C  0.84582453  0.00030593  0.34589844    -0.17500
C1530       C  0.86421904  0.00021522  0.36429776     0.06600
C1531       C  0.88576266  0.00020379  0.38583999     0.08400
C1532       C  0.90416225  0.00028241  0.40423427    -0.18300
C1533       C  0.59582104  0.99993188  0.40419497    -0.17500
C1534       C  0.61422026  0.50002345  0.38581994     0.06600
C1535       C  0.63575633  0.50002740  0.36426864     0.08400
C1536       C  0.65416147  0.99995356  0.34585828    -0.18300
C1537       C  0.65419898  0.00029775  0.15418984    -0.17500
C1538       C  0.63580244  0.00020714  0.13579101     0.06600
C1539       C  0.61425494  0.00019629  0.11425007     0.08400
C1540       C  0.59585171  0.00027595  0.09585785    -0.18300
C1541       C  0.90418558  0.99992295  0.09589459    -0.17500
C1542       C  0.88576486  0.50001973  0.11427448     0.06600
C1543       C  0.86423252  0.50002411  0.13582791     0.08400
C1544       C  0.84586248  0.99994883  0.15424193    -0.18300
C1545       C  0.49982659  0.09593851  0.40420934    -0.17500
C1546       C  0.99991882  0.11433580  0.38581266     0.06600
C1547       C  0.99992519  0.13588236  0.36427304     0.08400
C1548       C  0.49983992  0.15428290  0.34587956    -0.18300
C1549       C  0.50017258  0.34594351  0.34588223    -0.17500
C1550       C  0.50008678  0.36433972  0.36428027     0.06600
C1551       C  0.00008505  0.38588278  0.38582370     0.08400
C1552       C  0.50016974  0.40428055  0.40422010    -0.18300
C1553       C  0.49981205  0.40428256  0.09587900    -0.17500
C1554       C  0.99990023  0.38588573  0.11427647     0.06600
C1555       C  0.49990413  0.36434376  0.13582114     0.08400
C1556       C  0.49982091  0.34594755  0.15421922    -0.18300
C1557       C  0.50018986  0.15427732  0.15422271    -0.17500
C1558       C  0.00011098  0.13588098  0.13582493     0.06600
C1559       C  0.00011392  0.11434030  0.11427925     0.08400
C1560       C  0.50019769  0.09594526  0.09588013    -0.18300
O1561       O  0.50022121  0.04754082  0.58246506    -0.79100
O1562       O  0.49978660  0.04753517  0.91762709    -0.80600
O1563       O  0.54742750  0.08253601  0.50024799    -0.77700
O1564       O  0.95257616  0.08253800  0.49984286    -0.76100
O1565       O  0.91758703  0.04754476  0.49985057    -0.77800
O1566       O  0.58241851  0.04754475  0.50024151    -0.78800
O1567       O  0.49978028  0.08252912  0.95261566    -0.80100
O1568       O  0.50023462  0.08253274  0.54747434    -0.80400
Eu1569     Eu  0.50000176  0.05874182  0.50004600     2.39200
O1570       O  0.97066881  0.02944394  0.97072209    -0.87900
O1571       O  0.52933485  0.02944547  0.52937129    -0.91500
C1572       C  0.50025934  0.07404963  0.57398294     1.03200
C1573       C  0.49975515  0.07404431  0.92610759     1.03000
C1574       C  0.57393598  0.07405337  0.50027217     1.02900
C1575       C  0.92606780  0.07405414  0.49981867     1.00800
H1576       H  0.54141974  0.04154217  0.95861355     0.30600
O1577       O  0.52939236  0.02951388  0.97064573    -1.00300
H1578       H  0.95858465  0.04154317  0.54147910     0.30600
O1579       O  0.97061207  0.02951400  0.52944742    -1.02800
O1580       O  0.50020785  0.45268591  0.91763365    -0.80100
O1581       O  0.49976989  0.45268805  0.58246445    -0.79600
O1582       O  0.58241418  0.99990168  0.95260318    -0.78000
O1583       O  0.91758261  0.00032470  0.95263671    -0.81400
O1584       O  0.91758820  0.99989506  0.54748730    -0.79200
O1585       O  0.58242572  0.00032543  0.54745540    -0.77900
O1586       O  0.54742827  0.41770588  0.49983705    -0.79400
O1587       O  0.95257258  0.41769371  0.50025723    -0.81300
O1588       O  0.58241700  0.45269894  0.49983949    -0.78100
O1589       O  0.91757922  0.45268311  0.50024802    -0.80700
O1590       O  0.54741761  0.99989166  0.91761830    -0.76500
O1591       O  0.54744160  0.00031370  0.58245354    -0.76500
O1592       O  0.95258604  0.99988940  0.58247144    -0.76100
O1593       O  0.95256863  0.00032038  0.91764050    -0.79200
O1594       O  0.50021006  0.41769478  0.95262467    -0.79100
O1595       O  0.49977778  0.41769627  0.54747392    -0.77400
Eu1596     Eu  0.49999784  0.00011279  0.94142503     2.39800
Eu1597     Eu  0.50000787  0.00011527  0.55867068     2.39600
Eu1598     Eu  0.55862541  0.00011849  0.50003266     2.38400
Eu1599     Eu  0.94137908  0.00011670  0.50006084     2.39900
Eu1600     Eu  0.49999566  0.44149083  0.50004861     2.39800
O1601       O  0.97065750  0.47078283  0.52937505    -0.91800
O1602       O  0.52932863  0.47078072  0.97071636    -0.90700
C1603       C  0.50023747  0.42617720  0.92611617     1.03400
C1604       C  0.49974446  0.42617905  0.57398240     1.02100
C1605       C  0.57392785  0.99986620  0.92609566     1.01500
C1606       C  0.92606156  0.00034990  0.92612709     1.03500
C1607       C  0.92607605  0.99986017  0.57399403     1.02400
C1608       C  0.57394896  0.00034568  0.57396589     1.01200
C1609       C  0.57393656  0.42619008  0.49980881     1.01300
C1610       C  0.92606370  0.42617473  0.50028018     1.03900
H1611       H  0.54141046  0.45869454  0.54147473     0.31300
O1612       O  0.52938209  0.47072307  0.52944430    -1.04000
H1613       H  0.95857628  0.45869205  0.95862443     0.33300
O1614       O  0.97060365  0.47072192  0.97065499    -1.06500
O1615       O  0.50021638  0.20268316  0.66763438    -0.79100
O1616       O  0.49978946  0.20268907  0.83246803    -0.80600
O1617       O  0.54742739  0.16769495  0.74983815    -0.77700
O1618       O  0.95257600  0.16769785  0.75025869    -0.76100
O1619       O  0.91758496  0.20268912  0.75025583    -0.77800
O1620       O  0.58241800  0.20268598  0.74983605    -0.78800
O1621       O  0.49979563  0.16769888  0.79747593    -0.80100
O1622       O  0.50021827  0.16769308  0.70262673    -0.80400
Eu1623     Eu  0.50000085  0.19149069  0.75004910     2.39200
O1624       O  0.97066324  0.22078016  0.77937940    -0.87900
O1625       O  0.52933100  0.22077879  0.72071185    -0.91500
C1626       C  0.50024873  0.17617469  0.67611803     1.03200
C1627       C  0.49976675  0.17618060  0.82398472     1.03000
C1628       C  0.57393626  0.17617699  0.74980913     1.02900
C1629       C  0.92606776  0.17618072  0.75028555     1.00800
H1630       H  0.54141912  0.20869420  0.79147097     0.30600
O1631       O  0.52938937  0.22072294  0.77944155    -1.00300
H1632       H  0.95857996  0.20869132  0.70862575     0.30600
O1633       O  0.97060855  0.22072137  0.72065498    -1.02800
O1634       O  0.50020850  0.29753880  0.83246724    -0.80100
O1635       O  0.49978303  0.29754195  0.66763201    -0.79600
O1636       O  0.58241283  0.25032367  0.79747183    -0.78000
O1637       O  0.91757335  0.24990907  0.79746369    -0.81400
O1638       O  0.91758120  0.25032721  0.70262016    -0.79200
O1639       O  0.58241070  0.24989372  0.70261625    -0.77900
O1640       O  0.54742560  0.33252881  0.75026723    -0.79400
O1641       O  0.95256883  0.33252823  0.74983153    -0.81300
O1642       O  0.58241470  0.29753565  0.75026316    -0.78100
O1643       O  0.91757736  0.29753780  0.74982026    -0.80700
O1644       O  0.54742235  0.25032730  0.83246344    -0.76500
O1645       O  0.54742061  0.24989968  0.66762395    -0.76500
O1646       O  0.95257092  0.25032221  0.66762842    -0.76100
O1647       O  0.95256226  0.24990130  0.83245710    -0.79600
O1648       O  0.50021040  0.33253038  0.79747653    -0.79100
O1649       O  0.49978449  0.33253249  0.70262409    -0.77400
Eu1650     Eu  0.49999404  0.25011376  0.80867175     2.39800
Eu1651     Eu  0.49999790  0.25011322  0.69142201     2.39600
Eu1652     Eu  0.55862031  0.25011087  0.75004549     2.38400
Eu1653     Eu  0.94137605  0.25011511  0.75004394     2.39900
Eu1654     Eu  0.49999768  0.30873742  0.75004905     2.39800
O1655       O  0.97066732  0.27944757  0.72071281    -0.91800
O1656       O  0.52932811  0.27944223  0.77937887    -0.90700
C1657       C  0.50023872  0.32404759  0.82398519     1.03400
C1658       C  0.49975466  0.32405055  0.67611526     1.02100
C1659       C  0.57393096  0.25035439  0.82398054     1.01500
C1660       C  0.92605398  0.24987728  0.82397278     1.03500
C1661       C  0.92606260  0.25035323  0.67611165     1.02400
C1662       C  0.57392893  0.24986696  0.67610710     1.01200
C1663       C  0.57393388  0.32404478  0.75029541     1.01300
C1664       C  0.92605994  0.32404631  0.74979496     1.03900
H1665       H  0.54141893  0.29153478  0.70862643     0.31300
O1666       O  0.52938904  0.27950530  0.72065540    -1.04000
H1667       H  0.95857259  0.29153779  0.79146807     0.33300
O1668       O  0.97060294  0.27950808  0.77944023    -1.06500
O1669       O  0.83242217  0.49990305  0.70263352    -0.79100
O1670       O  0.66758353  0.50032267  0.70260948    -0.80600
O1671       O  0.75022311  0.45269530  0.66762437    -0.77700
O1672       O  0.74980901  0.04753994  0.66762561    -0.76100
O1673       O  0.74978952  0.08253098  0.70261621    -0.77800
O1674       O  0.75022486  0.41770356  0.70261481    -0.78800
O1675       O  0.70258043  0.50033348  0.66762447    -0.80100
O1676       O  0.79743491  0.49990882  0.66763848    -0.80400
Eu1677     Eu  0.75000458  0.50011739  0.69142338     2.39200
O1678       O  0.72067819  0.02944875  0.72070367    -0.87900
O1679       O  0.77933588  0.47078424  0.72071576    -0.91500
C1680       C  0.82394257  0.49987701  0.67612400     1.03200
C1681       C  0.67607033  0.50035730  0.67610230     1.03000
C1682       C  0.75025482  0.42618659  0.67610627     1.02900
C1683       C  0.74976817  0.07404862  0.67610750     1.00800
H1684       H  0.70858366  0.45869441  0.70862062     0.30600
O1685       O  0.72061031  0.47072445  0.72065168    -1.00300
H1686       H  0.79143797  0.04153773  0.70863306     0.30600
O1687       O  0.77940805  0.02950708  0.72066065    -1.02800
O1688       O  0.66756603  0.49990225  0.79746059    -0.80100
O1689       O  0.83240190  0.50033391  0.79748551    -0.79600
O1690       O  0.70257879  0.41769269  0.75025459    -0.78000
O1691       O  0.70258079  0.08253084  0.74983687    -0.81400
O1692       O  0.79743078  0.08253385  0.75025439    -0.79200
O1693       O  0.79742863  0.41770099  0.74983467    -0.77900
O1694       O  0.74977074  0.45268862  0.83246305    -0.79400
O1695       O  0.75021272  0.04754415  0.83245721    -0.81300
O1696       O  0.74978361  0.41769859  0.79747078    -0.78100
O1697       O  0.75021462  0.08253460  0.79746547    -0.80700
O1698       O  0.66758466  0.45268107  0.75025643    -0.76500
O1699       O  0.83241756  0.45269409  0.74983869    -0.76500
O1700       O  0.83242459  0.04754533  0.75027131    -0.76100
O1701       O  0.66759090  0.04753875  0.74982679    -0.79600
O1702       O  0.70255447  0.49990667  0.83245439    -0.79100
O1703       O  0.79740696  0.50033210  0.83247249    -0.77400
Eu1704     Eu  0.69137045  0.50011343  0.75003920     2.39800
Eu1705     Eu  0.80861953  0.50011809  0.75005411     2.39600
Eu1706     Eu  0.75000115  0.44149229  0.75004444     2.38400
Eu1707     Eu  0.75000717  0.05873721  0.75004284     2.39900
Eu1708     Eu  0.74998567  0.50011508  0.80866901     2.39800
O1709       O  0.77933773  0.02945045  0.77938426    -0.91800
O1710       O  0.72066017  0.47078021  0.77937293    -0.90700
C1711       C  0.67604625  0.49987648  0.82397019     1.03400
C1712       C  0.82391646  0.50036275  0.82399297     1.02100
C1713       C  0.67606946  0.42617273  0.75028558     1.01500
C1714       C  0.67607229  0.07404793  0.74980537     1.03500
C1715       C  0.82393982  0.07405318  0.75029135     1.02400
C1716       C  0.82393676  0.42618482  0.74980694     1.01200
C1717       C  0.74974724  0.42618007  0.82397975     1.01300
C1718       C  0.75024116  0.07405283  0.82397414     1.03900
H1719       H  0.79141397  0.45869623  0.79147343     0.31300
O1720       O  0.77938584  0.47072477  0.77944274    -1.04000
H1721       H  0.70858556  0.04153074  0.79145716     0.33300
O1722       O  0.72061624  0.02950127  0.77942919    -1.06500
O1723       O  0.70256896  0.16770426  0.00025652    -0.79100
O1724       O  0.70257067  0.33253378  0.99982753    -0.80600
O1725       O  0.66758082  0.24990414  0.54747185    -0.77700
O1726       O  0.66758143  0.25033462  0.95261732    -0.76100
O1727       O  0.70257457  0.25032842  0.91762869    -0.77800
O1728       O  0.70257002  0.24990275  0.58246496    -0.78800
O1729       O  0.66757745  0.29754482  0.99983236    -0.80100
O1730       O  0.66757739  0.20269485  0.00025713    -0.80400
Eu1731     Eu  0.69137267  0.25011930  0.00004442     2.39200
O1732       O  0.72066712  0.27944823  0.97071238    -0.87900
O1733       O  0.72066251  0.22078584  0.52937679    -0.91500
C1734       C  0.67606045  0.17618646  0.00028576     1.03200
C1735       C  0.67606139  0.32405311  0.99980037     1.03000
C1736       C  0.67606205  0.24987340  0.57398104     1.02900
C1737       C  0.67606536  0.25036020  0.92610929     1.00800
H1738       H  0.70857346  0.29154087  0.54146550     0.30600
O1739       O  0.72060327  0.27951115  0.52943700    -1.00300
H1740       H  0.70857435  0.20869630  0.95862199     0.30600
O1741       O  0.72060316  0.22072520  0.97065178    -1.02800
O1742       O  0.79742805  0.33252753  0.00025531    -0.80100
O1743       O  0.79741925  0.16769768  0.99983334    -0.79600
O1744       O  0.75020271  0.29754632  0.58246077    -0.78000
O1745       O  0.74978785  0.29753865  0.91762784    -0.81400
O1746       O  0.75021133  0.20268953  0.91762800    -0.79200
O1747       O  0.74977397  0.20268790  0.58245854    -0.77900
O1748       O  0.83240905  0.25032666  0.54748178    -0.79400
O1749       O  0.83241786  0.24990229  0.95262343    -0.81300
O1750       O  0.79741553  0.25032832  0.58247012    -0.78100
O1751       O  0.79742655  0.24990081  0.91763219    -0.80700
O1752       O  0.75020583  0.33253699  0.54746911    -0.76500
O1753       O  0.74977558  0.16769735  0.54746683    -0.76500
O1754       O  0.75020571  0.16769838  0.95261851    -0.76100
O1755       O  0.74977901  0.33253133  0.95261738    -0.79600
O1756       O  0.83241986  0.29753674  0.00026302    -0.79100
O1757       O  0.83241285  0.20268622  0.99984133    -0.77400
Eu1758     Eu  0.74999778  0.30874015  0.00004496     2.39800
Eu1759     Eu  0.74999553  0.19149493  0.00004416     2.39600
Eu1760     Eu  0.74999348  0.25011799  0.55866972     2.38400
Eu1761     Eu  0.75000060  0.25011465  0.94142389     2.39900
Eu1762     Eu  0.80862246  0.25011460  0.00005073     2.39800
O1763       O  0.77933405  0.22078249  0.97071481    -0.91800
O1764       O  0.77932941  0.27944984  0.52938062    -0.90700
C1765       C  0.82393677  0.32404494  0.00028773     1.03400
C1766       C  0.82392847  0.17617800  0.99980887     1.02100
C1767       C  0.75023336  0.32405495  0.57397782     1.01500
C1768       C  0.74975279  0.32404764  0.92610906     1.03500
C1769       C  0.75023599  0.17618066  0.92610974     1.02400
C1770       C  0.74974428  0.17617913  0.57397549     1.01200
C1771       C  0.82392461  0.25035606  0.57398980     1.01300
C1772       C  0.82393514  0.24987349  0.92611441     1.03900
H1773       H  0.79141345  0.20869520  0.54147027     0.31300
O1774       O  0.77938636  0.22072515  0.52944006    -1.04000
H1775       H  0.79142135  0.29153604  0.95862757     0.33300
O1776       O  0.77939187  0.27950701  0.97065681    -1.06500
C1777       C  0.74982646  0.09594472  0.65421022    -0.17500
C1778       C  0.74990294  0.11434048  0.63581146     0.06600
C1779       C  0.74989600  0.13588340  0.61426746     0.08400
C1780       C  0.74980899  0.15428149  0.59587110    -0.18300
C1781       C  0.75017133  0.34595183  0.59587373    -0.17500
C1782       C  0.75009448  0.36434933  0.61427037     0.06600
C1783       C  0.75010285  0.38589317  0.63581286     0.08400
C1784       C  0.75019057  0.40429064  0.65420950    -0.18300
C1785       C  0.74981143  0.40428233  0.84587523    -0.17500
C1786       C  0.74989499  0.38588362  0.86427091     0.06600
C1787       C  0.74989567  0.36433949  0.88581355     0.08400
C1788       C  0.74981418  0.34594294  0.90421135    -0.18300
C1789       C  0.75017076  0.09595020  0.84587006    -0.17500
C1790       C  0.75008251  0.11434708  0.86426771     0.06600
C1791       C  0.75007985  0.13588899  0.88581298     0.08400
C1792       C  0.75016557  0.15428450  0.90421216    -0.18300
C1793       C  0.84583428  0.09595049  0.75022391    -0.17500
C1794       C  0.86423168  0.11434659  0.75013763     0.06600
C1795       C  0.88577524  0.13588833  0.75013495     0.08400
C1796       C  0.90417207  0.15428493  0.75021835    -0.18300
C1797       C  0.84583401  0.40428896  0.74987002    -0.17500
C1798       C  0.86422896  0.38588954  0.74995000     0.06600
C1799       C  0.88576865  0.36434252  0.74994478     0.08400
C1800       C  0.90416380  0.34594333  0.74985849    -0.18300
C1801       C  0.65417482  0.09594425  0.74987733    -0.17500
C1802       C  0.63577651  0.11434071  0.74996462     0.06600
C1803       C  0.61423165  0.13588338  0.74996473     0.08400
C1804       C  0.59583354  0.15428015  0.74987826    -0.18300
C1805       C  0.65417502  0.40427350  0.75022276    -0.17500
C1806       C  0.63577847  0.38587536  0.75014167     0.06600
C1807       C  0.61423292  0.36433370  0.75014506     0.08400
C1808       C  0.59583258  0.34593947  0.75023074    -0.18300
C1809       C  0.90416460  0.25028615  0.65421711    -0.17500
C1810       C  0.88576401  0.25020192  0.63582364     0.06600
C1811       C  0.86421747  0.25020324  0.61428388     0.08400
C1812       C  0.84581945  0.25028888  0.59588776    -0.18300
C1813       C  0.59582570  0.24993222  0.65421108    -0.17500
C1814       C  0.61422318  0.25001726  0.63581458     0.06600
C1815       C  0.63576723  0.25001886  0.61427248     0.08400
C1816       C  0.65416494  0.24993660  0.59587632    -0.18300
C1817       C  0.65416972  0.25029174  0.90421152    -0.17500
C1818       C  0.63577215  0.25020490  0.88581451     0.06600
C1819       C  0.61422747  0.25020364  0.86427209     0.08400
C1820       C  0.59582864  0.25028797  0.84587630    -0.18300
C1821       C  0.90415625  0.24994588  0.84586778    -0.17500
C1822       C  0.88576079  0.25003162  0.86426639     0.06600
C1823       C  0.86422224  0.25003098  0.88581430     0.08400
C1824       C  0.84582996  0.24994350  0.90421617    -0.18300
C1825       C  0.84583297  0.34594048  0.50021996    -0.17500
C1826       C  0.86423114  0.36433583  0.50013236     0.06600
C1827       C  0.88577431  0.38587818  0.50012800     0.08400
C1828       C  0.90416969  0.40427651  0.50021139    -0.18300
C1829       C  0.84582324  0.15427944  0.49987647    -0.17500
C1830       C  0.86422067  0.13588235  0.49996310     0.06600
C1831       C  0.88576756  0.11434214  0.49996683     0.08400
C1832       C  0.90416894  0.09594890  0.49988500    -0.18300
C1833       C  0.65416657  0.34595165  0.49986556    -0.17500
C1834       C  0.63577251  0.36435202  0.49995099     0.06600
C1835       C  0.61423206  0.38589835  0.49995419     0.08400
C1836       C  0.59583498  0.40429559  0.49987277    -0.18300
C1837       C  0.65416521  0.15428962  0.50021798    -0.17500
C1838       C  0.63576971  0.13589140  0.50012933     0.06600
C1839       C  0.61422828  0.11434707  0.50012310     0.08400
C1840       C  0.59583203  0.09594954  0.50020447    -0.18300
C1841       C  0.84582452  0.00030606  0.84589845    -0.17500
C1842       C  0.86421904  0.00021535  0.86429774     0.06600
C1843       C  0.88576266  0.00020391  0.88583996     0.08400
C1844       C  0.90416228  0.00028254  0.90423421    -0.18300
C1845       C  0.59582105  0.99993185  0.90419498    -0.17500
C1846       C  0.61422023  0.50002335  0.88581993     0.06600
C1847       C  0.63575636  0.50002736  0.86426870     0.08400
C1848       C  0.65416143  0.99995363  0.84585823    -0.18300
C1849       C  0.65419894  0.00029772  0.65418991    -0.17500
C1850       C  0.63580241  0.00020704  0.63579109     0.06600
C1851       C  0.61425494  0.00019619  0.61425012     0.08400
C1852       C  0.59585173  0.00027586  0.59585789    -0.18300
C1853       C  0.90418558  0.99992292  0.59589464    -0.17500
C1854       C  0.88576481  0.50001986  0.61427444     0.06600
C1855       C  0.86423247  0.50002417  0.63582789     0.08400
C1856       C  0.84586247  0.99994890  0.65424197    -0.18300
C1857       C  0.49982659  0.09593853  0.90420935    -0.17500
C1858       C  0.99991870  0.11433580  0.88581267     0.06600
C1859       C  0.99992514  0.13588234  0.86427304     0.08400
C1860       C  0.49983991  0.15428288  0.84587955    -0.18300
C1861       C  0.50017257  0.34594350  0.84588228    -0.17500
C1862       C  0.50008677  0.36433969  0.86428031     0.06600
C1863       C  0.00008505  0.38588281  0.88582367     0.08400
C1864       C  0.50016973  0.40428053  0.90422011    -0.18300
C1865       C  0.49981204  0.40428254  0.59587898    -0.17500
C1866       C  0.99990022  0.38588566  0.61427642     0.06600
C1867       C  0.49990412  0.36434372  0.63582113     0.08400
C1868       C  0.49982091  0.34594752  0.65421923    -0.18300
C1869       C  0.50018986  0.15427739  0.65422272    -0.17500
C1870       C  0.00011098  0.13588106  0.63582492     0.06600
C1871       C  0.00011391  0.11434039  0.61427923     0.08400
C1872       C  0.50019770  0.09594531  0.59588013    -0.18300
O1873       O  0.50020193  0.54754024  0.08246438    -0.79100
O1874       O  0.49979378  0.54753438  0.41762530    -0.80600
O1875       O  0.54742239  0.58253125  0.00026026    -0.77700
O1876       O  0.95257489  0.58254176  0.99983197    -0.76100
O1877       O  0.91758399  0.54754984  0.99982680    -0.77800
O1878       O  0.58241145  0.54753862  0.00026691    -0.78800
O1879       O  0.49979336  0.58252708  0.45261482    -0.80100
O1880       O  0.50020981  0.58253127  0.04747303    -0.80400
Eu1881     Eu  0.49999435  0.55873941  0.00004550     2.39200
O1882       O  0.97066109  0.52944790  0.47071199    -0.87900
O1883       O  0.52932151  0.52944935  0.02938413    -0.91500
C1884       C  0.50023700  0.57404876  0.07398175     1.03200
C1885       C  0.49976867  0.57404319  0.42610643     1.03000
C1886       C  0.57393076  0.57404768  0.00029298     1.02900
C1887       C  0.92606660  0.57405904  0.99980081     1.00800
H1888       H  0.54141876  0.54153612  0.45862751     0.30600
O1889       O  0.52938710  0.52950786  0.47065601    -1.00300
H1890       H  0.95856743  0.54153664  0.04146199     0.30600
O1891       O  0.97059757  0.52950690  0.02943385    -1.02800
O1892       O  0.50020081  0.95268690  0.41763168    -0.80100
O1893       O  0.49978917  0.95268861  0.08246369    -0.79600
O1894       O  0.58240823  0.49989881  0.45262640    -0.78000
O1895       O  0.91757669  0.50032156  0.45261336    -0.81400
O1896       O  0.91756633  0.49989423  0.04746339    -0.79200
O1897       O  0.58240386  0.50032434  0.04747921    -0.77900
O1898       O  0.54742953  0.91770218  0.99982628    -0.79400
O1899       O  0.95257774  0.91769846  0.00026950    -0.81300
O1900       O  0.58242007  0.95269386  0.99981586    -0.78100
O1901       O  0.91758630  0.95268920  0.00027341    -0.80700
O1902       O  0.54742085  0.49989957  0.41763180    -0.76500
O1903       O  0.54741219  0.50032679  0.08246908    -0.76500
O1904       O  0.95255662  0.49990240  0.08245579    -0.76100
O1905       O  0.95257189  0.50032820  0.41762685    -0.79200
O1906       O  0.50019695  0.91769698  0.45262364    -0.79100
O1907       O  0.49980243  0.91769770  0.04747257    -0.77400
Eu1908     Eu  0.49999595  0.50011330  0.44142500     2.39800
Eu1909     Eu  0.49998607  0.50011503  0.05867064     2.39600
Eu1910     Eu  0.55861311  0.50011636  0.00005254     2.38400
Eu1911     Eu  0.94136676  0.50011461  0.00004087     2.39900
Eu1912     Eu  0.50000313  0.94149326  0.00004812     2.39800
O1913       O  0.97067095  0.97077898  0.02938793    -0.91800
O1914       O  0.52933633  0.97077682  0.47070634    -0.90700
C1915       C  0.50022403  0.92617851  0.42611482     1.03400
C1916       C  0.49976672  0.92617990  0.07398117     1.02100
C1917       C  0.57392862  0.49986970  0.42611660     1.01500
C1918       C  0.92606235  0.50035317  0.42610602     1.03500
C1919       C  0.92604844  0.49986826  0.07397234     1.02400
C1920       C  0.57392136  0.50035369  0.07398749     1.01200
C1921       C  0.57393775  0.92618520  0.99979102     1.01300
C1922       C  0.92606895  0.92618040  0.00030100     1.03900
H1923       H  0.54142766  0.95870104  0.04145767     0.31300
O1924       O  0.52939647  0.97073024  0.02943068    -1.04000
H1925       H  0.95857748  0.95869821  0.45863848     0.33300
O1926       O  0.97060868  0.97072765  0.47066500    -1.06500
O1927       O  0.50021915  0.70268714  0.16762987    -0.79100
O1928       O  0.49979648  0.70268455  0.33246388    -0.80600
O1929       O  0.54742265  0.66769571  0.24983668    -0.77700
O1930       O  0.95257306  0.66769409  0.25025711    -0.76100
O1931       O  0.91758203  0.70268492  0.25025770    -0.77800
O1932       O  0.58241136  0.70268919  0.24984441    -0.78800
O1933       O  0.49980107  0.66769455  0.29747129    -0.80100
O1934       O  0.50022065  0.66769617  0.20262109    -0.80400
Eu1935     Eu  0.49999822  0.69148981  0.25004709     2.39200
O1936       O  0.97066304  0.72077574  0.27938378    -0.87900
O1937       O  0.52933065  0.72078168  0.22071540    -0.91500
C1938       C  0.50025193  0.67617850  0.17611246     1.03200
C1939       C  0.49977514  0.67617601  0.32398008     1.03000
C1940       C  0.57393051  0.67617995  0.24981304     1.02900
C1941       C  0.92606447  0.67617633  0.25028558     1.00800
H1942       H  0.54141592  0.70869727  0.29146817     0.30600
O1943       O  0.52938581  0.72072554  0.27943888    -1.00300
H1944       H  0.95857801  0.70868885  0.20862338     0.30600
O1945       O  0.97060641  0.72071857  0.22065268    -1.02800
O1946       O  0.50020167  0.79754330  0.33246298    -0.80100
O1947       O  0.49978030  0.79753802  0.16762754    -0.79600
O1948       O  0.58240780  0.75032990  0.29747746    -0.78000
O1949       O  0.91757838  0.74990295  0.29746942    -0.81400
O1950       O  0.91758013  0.75032129  0.20262363    -0.79200
O1951       O  0.58241164  0.74989978  0.20261956    -0.77900
O1952       O  0.54742844  0.83253253  0.25026565    -0.79400
O1953       O  0.95257357  0.83252745  0.24982988    -0.81300
O1954       O  0.58241769  0.79753997  0.25026501    -0.78100
O1955       O  0.91758395  0.79753464  0.24982881    -0.80700
O1956       O  0.54741828  0.75032762  0.33246994    -0.76500
O1957       O  0.54742153  0.74989808  0.16762729    -0.76500
O1958       O  0.95256986  0.75032376  0.16763190    -0.76100
O1959       O  0.95256634  0.74990088  0.33246369    -0.79600
O1960       O  0.50020494  0.83253477  0.29747184    -0.79100
O1961       O  0.49978197  0.83252943  0.20261852    -0.77400
Eu1962     Eu  0.49999402  0.75011372  0.30867324     2.39800
Eu1963     Eu  0.49999788  0.75011323  0.19142331     2.39600
Eu1964     Eu  0.55861929  0.75011613  0.25004847     2.38400
Eu1965     Eu  0.94137706  0.75010995  0.25004699     2.39900
Eu1966     Eu  0.50000020  0.80873826  0.25004706     2.39800
O1967       O  0.97066767  0.77944468  0.22071637    -0.91800
O1968       O  0.52932831  0.77944670  0.27938329    -0.90700
C1969       C  0.50023047  0.82405220  0.32398049     1.03400
C1970       C  0.49975149  0.82404679  0.17610975     1.02100
C1971       C  0.57392644  0.75035760  0.32398636     1.01500
C1972       C  0.92605850  0.74987407  0.32397870     1.03500
C1973       C  0.92606148  0.75035125  0.17611492     1.02400
C1974       C  0.57392991  0.74986899  0.17611021     1.01200
C1975       C  0.57393713  0.82404927  0.25029544     1.01300
C1976       C  0.92606569  0.82404339  0.24979890     1.03900
H1977       H  0.54142084  0.79153740  0.20862407     0.31300
O1978       O  0.52939105  0.77950811  0.22065316    -1.04000
H1979       H  0.95857582  0.79153482  0.29146548     0.33300
O1980       O  0.97060656  0.77950545  0.27943763    -1.06500
O1981       O  0.83244241  0.99991278  0.20264369    -0.79100
O1982       O  0.66760385  0.00033231  0.20259913    -0.80600
O1983       O  0.75023775  0.95269536  0.16762409    -0.77700
O1984       O  0.74979419  0.54753976  0.16762532    -0.76100
O1985       O  0.74978926  0.58253148  0.20261544    -0.77800
O1986       O  0.75022512  0.91770304  0.20261414    -0.78800
O1987       O  0.70260213  0.00033331  0.16761593    -0.80100
O1988       O  0.79745653  0.99990855  0.16764681    -0.80400
Eu1989     Eu  0.75002176  0.00011663  0.19142330     2.39200
O1990       O  0.72066476  0.52944737  0.22070955    -0.87900
O1991       O  0.77934921  0.97078569  0.22072170    -0.91500
C1992       C  0.82396369  0.99988301  0.17613414     1.03200
C1993       C  0.67609153  0.00036329  0.17609197     1.03000
C1994       C  0.75026006  0.92618662  0.17610566     1.02900
C1995       C  0.74976284  0.57404851  0.17610681     1.00800
H1996       H  0.70859709  0.95869223  0.20861533     0.30600
O1997       O  0.72062438  0.97072104  0.22064700    -1.00300
H1998       H  0.79142453  0.54153994  0.20862760     0.30600
O1999       O  0.77939408  0.52951067  0.22065578    -1.02800
O2000       O  0.66758498  0.99991011  0.29745517    -0.80100
O2001       O  0.83242090  0.00034183  0.29749089    -0.79600
O2002       O  0.70258922  0.91769102  0.25025746    -0.78000
O2003       O  0.70257174  0.58253454  0.24983052    -0.81400
O2004       O  0.79742038  0.58253549  0.25025722    -0.79200
O2005       O  0.79743760  0.91769730  0.24982837    -0.77900
O2006       O  0.74978394  0.95269011  0.33246592    -0.79400
O2007       O  0.75019962  0.54754274  0.33245992    -0.81300
O2008       O  0.74978956  0.91769941  0.29747423    -0.78100
O2009       O  0.75020877  0.58253392  0.29746881    -0.80700
O2010       O  0.66759770  0.95268179  0.25024846    -0.76500
O2011       O  0.83242812  0.95268933  0.24984200    -0.76500
O2012       O  0.83241158  0.54754459  0.25026352    -0.76100
O2013       O  0.66758033  0.54754343  0.24982989    -0.79600
O2014       O  0.70257039  0.99991010  0.33245251    -0.79100
O2015       O  0.79742299  0.00033541  0.33247440    -0.77400
Eu2016     Eu  0.69138645  0.00011258  0.25003284     2.39800
Eu2017     Eu  0.80863563  0.00011722  0.25006040     2.39600
Eu2018     Eu  0.75001254  0.94149039  0.25004527     2.38400
Eu2019     Eu  0.74999576  0.55873920  0.25004356     2.39900
Eu2020     Eu  0.75000309  0.00011427  0.30866905     2.39800
O2021       O  0.77932206  0.52944804  0.27938220    -0.91800
O2022       O  0.72067581  0.97078277  0.27937092    -0.90700
C2023       C  0.67606276  0.99988387  0.32396552     1.03400
C2024       C  0.82393308  0.00037011  0.32399761     1.02100
C2025       C  0.67608034  0.92617276  0.25028246     1.01500
C2026       C  0.67606318  0.57405232  0.24980237     1.03500
C2027       C  0.82392896  0.57405313  0.25028833     1.02400
C2028       C  0.82394581  0.92618039  0.24980415     1.01200
C2029       C  0.74975511  0.92618153  0.32398316     1.01300
C2030       C  0.75023337  0.57405146  0.32397744     1.03900
H2031       H  0.79143074  0.95868993  0.29147694     0.31300
O2032       O  0.77940305  0.97071873  0.27944615    -1.04000
H2033       H  0.70856888  0.54153714  0.29146050     0.33300
O2034       O  0.72059910  0.52950737  0.27943247    -1.06500
O2035       O  0.70256910  0.66769927  0.50026183    -0.79100
O2036       O  0.70257237  0.83253397  0.49982904    -0.80600
O2037       O  0.66757706  0.74990690  0.04746670    -0.77700
O2038       O  0.66758468  0.75033449  0.45261316    -0.76100
O2039       O  0.70257697  0.75032727  0.41762367    -0.77800
O2040       O  0.70256634  0.74990421  0.08245980    -0.78800
O2041       O  0.66757918  0.79754483  0.49982363    -0.80100
O2042       O  0.66757972  0.70269178  0.50025750    -0.80400
Eu2043     Eu  0.69137315  0.75011999  0.50004157     2.39200
O2044       O  0.72066966  0.77944987  0.47071164    -0.87900
O2045       O  0.72066096  0.72078772  0.02937578    -0.91500
C2046       C  0.67606088  0.67618233  0.50028928     1.03200
C2047       C  0.67606316  0.82405285  0.49979602     1.03000
C2048       C  0.67605808  0.74987574  0.07397598     1.02900
C2049       C  0.67606811  0.75036048  0.42610504     1.00800
H2050       H  0.70857353  0.79154246  0.04146505     0.30600
O2051       O  0.72060292  0.77951255  0.02943678    -1.00300
H2052       H  0.70857434  0.70869676  0.45862175     0.30600
O2053       O  0.72060367  0.72072575  0.47065107    -1.02800
O2054       O  0.79742792  0.83253257  0.50026061    -0.80100
O2055       O  0.79741759  0.66769761  0.49983451    -0.79600
O2056       O  0.75020783  0.79754296  0.08246393    -0.78000
O2057       O  0.74978512  0.79754321  0.41763190    -0.81400
O2058       O  0.75021396  0.70268495  0.41763205    -0.79200
O2059       O  0.74976878  0.70269127  0.08246179    -0.77900
O2060       O  0.83241268  0.75032397  0.04747671    -0.79400
O2061       O  0.83241467  0.74990235  0.45261942    -0.81300
O2062       O  0.79741905  0.75032709  0.08246502    -0.78100
O2063       O  0.79742428  0.74990208  0.41762725    -0.80700
O2064       O  0.75021262  0.83253401  0.04747289    -0.76500
O2065       O  0.74976892  0.66770039  0.04747065    -0.76500
O2066       O  0.75019965  0.66769472  0.45262375    -0.76100
O2067       O  0.74978512  0.83253498  0.45262263    -0.79600
O2068       O  0.83241758  0.79753986  0.50026320    -0.79100
O2069       O  0.83241121  0.70268627  0.49983285    -0.77400
Eu2070     Eu  0.75000003  0.80874061  0.50004683     2.39800
Eu2071     Eu  0.74999331  0.69149448  0.50004603     2.39600
Eu2072     Eu  0.74999344  0.75011797  0.05866863     2.38400
Eu2073     Eu  0.75000065  0.75011465  0.44142206     2.39900
Eu2074     Eu  0.80862202  0.75011394  0.50004800     2.39800
O2075       O  0.77933160  0.72078088  0.47071411    -0.91800
O2076       O  0.77933086  0.77944786  0.02937953    -0.90700
C2077       C  0.82393637  0.82404912  0.50029113     1.03400
C2078       C  0.82392675  0.67617835  0.49980446     1.02100
C2079       C  0.75024029  0.82405158  0.07398144     1.01500
C2080       C  0.74975412  0.82405208  0.42611430     1.03500
C2081       C  0.75023463  0.67617621  0.42611496     1.02400
C2082       C  0.74973738  0.67618253  0.07397916     1.01200
C2083       C  0.82392842  0.75035388  0.07398482     1.01300
C2084       C  0.82393249  0.74987326  0.42611030     1.03900
H2085       H  0.79141359  0.70869348  0.04147003     0.31300
O2086       O  0.77938651  0.72072402  0.02943964    -1.04000
H2087       H  0.79142139  0.79153552  0.45862738     0.33300
O2088       O  0.77939141  0.77950642  0.47065617    -1.06500
C2089       C  0.74982555  0.59594389  0.15420902    -0.17500
C2090       C  0.74990235  0.61434024  0.13581096     0.06600
C2091       C  0.74989194  0.63588532  0.11426929     0.08400
C2092       C  0.74980193  0.65428505  0.09587472    -0.18300
C2093       C  0.75017839  0.84594823  0.09587736    -0.17500
C2094       C  0.75009853  0.86434726  0.11427235     0.06600
C2095       C  0.75010342  0.88589327  0.13581249     0.08400
C2096       C  0.75019145  0.90429135  0.15420841    -0.18300
C2097       C  0.74981516  0.90428484  0.34587953    -0.17500
C2098       C  0.74989610  0.88588796  0.36427691     0.06600
C2099       C  0.74989529  0.86434538  0.38582080     0.08400
C2100       C  0.74981417  0.84594850  0.40421806    -0.18300
C2101       C  0.75016708  0.59594770  0.34587430    -0.17500
C2102       C  0.75008153  0.61434272  0.36427369     0.06600
C2103       C  0.75008039  0.63588306  0.38582022     0.08400
C2104       C  0.75016563  0.65427891  0.40421886    -0.18300
C2105       C  0.84582557  0.59594888  0.25021930    -0.17500
C2106       C  0.86422485  0.61434348  0.25013299     0.06600
C2107       C  0.88577035  0.63588399  0.25013237     0.08400
C2108       C  0.90416822  0.65428005  0.25021764    -0.18300
C2109       C  0.84584131  0.90428361  0.24986527    -0.17500
C2110       C  0.86423496  0.88588350  0.24994655     0.06600
C2111       C  0.88577396  0.86433687  0.24994520     0.08400
C2112       C  0.90416920  0.84593853  0.24986185    -0.18300
C2113       C  0.65416741  0.59594950  0.24987220    -0.17500
C2114       C  0.63577043  0.61434671  0.24996077     0.06600
C2115       C  0.61422635  0.63588908  0.24996487     0.08400
C2116       C  0.59582818  0.65428503  0.24988147    -0.18300
C2117       C  0.65418373  0.90427514  0.25021797    -0.17500
C2118       C  0.63578524  0.88587858  0.25013680     0.06600
C2119       C  0.61423770  0.86433822  0.25014231     0.08400
C2120       C  0.59583630  0.84594454  0.25022997    -0.18300
C2121       C  0.90416389  0.75028484  0.15421927    -0.17500
C2122       C  0.88576550  0.75020068  0.13582311     0.06600
C2123       C  0.86422091  0.75020119  0.11428062     0.08400
C2124       C  0.84582364  0.75028634  0.09588324    -0.18300
C2125       C  0.59582626  0.74993363  0.15421308    -0.17500
C2126       C  0.61422153  0.75001866  0.13581392     0.06600
C2127       C  0.63576356  0.75002114  0.11426903     0.08400
C2128       C  0.65416056  0.74993933  0.09587166    -0.18300
C2129       C  0.65417184  0.75029566  0.40420858    -0.17500
C2130       C  0.63577221  0.75021077  0.38581405     0.06600
C2131       C  0.61422500  0.75020841  0.36427482     0.08400
C2132       C  0.59582449  0.75029145  0.34588112    -0.18300
C2133       C  0.90416039  0.74994239  0.34587271    -0.17500
C2134       C  0.88576329  0.75002690  0.36426926     0.06600
C2135       C  0.86422227  0.75002523  0.38581401     0.08400
C2136       C  0.84582795  0.74993969  0.40421343    -0.18300
C2137       C  0.84583413  0.84594498  0.00022571    -0.17500
C2138       C  0.86423197  0.86434182  0.00014309     0.06600
C2139       C  0.88577559  0.88588548  0.00014699     0.08400
C2140       C  0.90417261  0.90428313  0.00023440    -0.18300
C2141       C  0.84582218  0.65428135  0.99987060    -0.17500
C2142       C  0.86422273  0.63588797  0.99995522     0.06600
C2143       C  0.88577096  0.61435012  0.99995463     0.08400
C2144       C  0.90417039  0.59595553  0.99986871    -0.18300
C2145       C  0.65416760  0.84594970  0.99985981    -0.17500
C2146       C  0.63577046  0.86434640  0.99994317     0.06600
C2147       C  0.61422864  0.88589035  0.99994193     0.08400
C2148       C  0.59583349  0.90428892  0.99985639    -0.18300
C2149       C  0.65416404  0.65428516  0.00022368    -0.17500
C2150       C  0.63576888  0.63588545  0.00014008     0.06600
C2151       C  0.61422703  0.61433976  0.00014203     0.08400
C2152       C  0.59582916  0.59594289  0.00022743    -0.18300
C2153       C  0.84581172  0.50029670  0.34589025    -0.17500
C2154       C  0.86421451  0.50020939  0.36428146     0.06600
C2155       C  0.88576656  0.50020464  0.38581545     0.08400
C2156       C  0.90416802  0.50028661  0.40420795    -0.18300
C2157       C  0.59582678  0.49993617  0.40422110    -0.17500
C2158       C  0.61421630  0.00002264  0.38579552     0.06600
C2159       C  0.63576074  0.00003339  0.36425239     0.08400
C2160       C  0.65414880  0.49994423  0.34586646    -0.18300
C2161       C  0.65417679  0.50029138  0.15420238    -0.17500
C2162       C  0.63577664  0.50020559  0.13580791     0.06600
C2163       C  0.61422450  0.50020280  0.11427285     0.08400
C2164       C  0.59581980  0.50028615  0.09588281    -0.18300
C2165       C  0.90415366  0.49993323  0.09586963    -0.17500
C2166       C  0.88579526  0.00001325  0.11429718     0.06600
C2167       C  0.86425827  0.00002577  0.13584473     0.08400
C2168       C  0.84584034  0.49994241  0.15422946    -0.18300
C2169       C  0.49984578  0.59593775  0.40420850    -0.17500
C2170       C  0.99993840  0.61433369  0.38581046     0.06600
C2171       C  0.99994202  0.63587819  0.36426880     0.08400
C2172       C  0.49985327  0.65427792  0.34587454    -0.18300
C2173       C  0.50015947  0.84594845  0.34587724    -0.17500
C2174       C  0.50007015  0.86434390  0.36427601     0.06600
C2175       C  0.00006561  0.88588509  0.38582130     0.08400
C2176       C  0.50015069  0.90428153  0.40421904    -0.18300
C2177       C  0.49983111  0.90428301  0.09587730    -0.17500
C2178       C  0.99991221  0.88588499  0.11427362     0.06600
C2179       C  0.49990731  0.86434054  0.13581591     0.08400
C2180       C  0.49981894  0.84594312  0.15421285    -0.18300
C2181       C  0.50019196  0.65428184  0.15421627    -0.17500
C2182       C  0.00010789  0.63588426  0.13581966     0.06600
C2183       C  0.00010202  0.61434104  0.11427643     0.08400
C2184       C  0.50017859  0.59594482  0.09587845    -0.18300
O2185       O  0.50020193  0.54754025  0.58246431    -0.79100
O2186       O  0.49979378  0.54753437  0.91762534    -0.80600
O2187       O  0.54742238  0.58253129  0.50026032    -0.77700
O2188       O  0.95257489  0.58254171  0.49983208    -0.76100
O2189       O  0.91758394  0.54754986  0.49982688    -0.77800
O2190       O  0.58241144  0.54753866  0.50026679    -0.78800
O2191       O  0.49979336  0.58252712  0.95261483    -0.80100
O2192       O  0.50020981  0.58253129  0.54747298    -0.80400
Eu2193     Eu  0.49999435  0.55873938  0.50004553     2.39200
O2194       O  0.97066105  0.52944792  0.97071197    -0.87900
O2195       O  0.52932150  0.52944933  0.52938422    -0.91500
C2196       C  0.50023699  0.57404877  0.57398169     1.03200
C2197       C  0.49976867  0.57404320  0.92610645     1.03000
C2198       C  0.57393076  0.57404771  0.50029296     1.02900
C2199       C  0.92606659  0.57405904  0.49980089     1.00800
H2200       H  0.54141873  0.54153598  0.95862758     0.30600
O2201       O  0.52938725  0.52950795  0.97065588    -1.00300
H2202       H  0.95856745  0.54153654  0.54146193     0.30600
O2203       O  0.97059751  0.52950691  0.52943389    -1.02800
O2204       O  0.50020080  0.95268686  0.91763172    -0.80100
O2205       O  0.49978916  0.95268860  0.58246371    -0.79600
O2206       O  0.58240826  0.49989869  0.95262641    -0.78000
O2207       O  0.91757680  0.50032165  0.95261341    -0.81400
O2208       O  0.91756637  0.49989436  0.54746339    -0.79200
O2209       O  0.58240385  0.50032443  0.54747922    -0.77900
O2210       O  0.54742956  0.91770223  0.49982620    -0.79400
O2211       O  0.95257773  0.91769846  0.50026961    -0.81300
O2212       O  0.58242012  0.95269390  0.49981578    -0.78100
O2213       O  0.91758628  0.95268920  0.50027335    -0.80700
O2214       O  0.54742085  0.49989964  0.91763184    -0.76500
O2215       O  0.54741218  0.50032669  0.58246912    -0.76500
O2216       O  0.95255662  0.49990234  0.58245583    -0.76100
O2217       O  0.95257192  0.50032829  0.91762682    -0.79200
O2218       O  0.50019695  0.91769695  0.95262368    -0.79100
O2219       O  0.49980243  0.91769767  0.54747260    -0.77400
Eu2220     Eu  0.49999596  0.50011326  0.94142502     2.39800
Eu2221     Eu  0.49998606  0.50011498  0.55867067     2.39600
Eu2222     Eu  0.55861310  0.50011641  0.50005255     2.38400
Eu2223     Eu  0.94136672  0.50011463  0.50004081     2.39900
Eu2224     Eu  0.50000312  0.94149323  0.50004814     2.39800
O2225       O  0.97067094  0.97077892  0.52938801    -0.91800
O2226       O  0.52933637  0.97077679  0.97070625    -0.90700
C2227       C  0.50022402  0.92617847  0.92611486     1.03400
C2228       C  0.49976671  0.92617989  0.57398118     1.02100
C2229       C  0.57392863  0.49986967  0.92611661     1.01500
C2230       C  0.92606240  0.50035329  0.92610605     1.03500
C2231       C  0.92604845  0.49986833  0.57397235     1.02400
C2232       C  0.57392135  0.50035369  0.57398751     1.01200
C2233       C  0.57393779  0.92618524  0.49979092     1.01300
C2234       C  0.92606894  0.92618040  0.50030104     1.03900
H2235       H  0.54142768  0.95870093  0.54145777     0.31300
O2236       O  0.52939641  0.97073026  0.52943067    -1.04000
H2237       H  0.95857748  0.95869817  0.95863850     0.33300
O2238       O  0.97060867  0.97072765  0.97066499    -1.06500
O2239       O  0.50021914  0.70268707  0.66762993    -0.79100
O2240       O  0.49979647  0.70268453  0.83246383    -0.80600
O2241       O  0.54742267  0.66769571  0.74983660    -0.77700
O2242       O  0.95257305  0.66769407  0.75025715    -0.76100
O2243       O  0.91758199  0.70268487  0.75025773    -0.77800
O2244       O  0.58241138  0.70268917  0.74984450    -0.78800
O2245       O  0.49980108  0.66769446  0.79747129    -0.80100
O2246       O  0.50022064  0.66769606  0.70262110    -0.80400
Eu2247     Eu  0.49999821  0.69148975  0.75004713     2.39200
O2248       O  0.97066304  0.72077569  0.77938387    -0.87900
O2249       O  0.52933063  0.72078159  0.72071543    -0.91500
C2250       C  0.50025192  0.67617842  0.67611247     1.03200
C2251       C  0.49977513  0.67617596  0.82398008     1.03000
C2252       C  0.57393052  0.67617994  0.74981303     1.02900
C2253       C  0.92606445  0.67617628  0.75028562     1.00800
H2254       H  0.54141592  0.70869721  0.79146814     0.30600
O2255       O  0.52938572  0.72072560  0.77943878    -1.00300
H2256       H  0.95857800  0.70868877  0.70862344     0.30600
O2257       O  0.97060640  0.72071850  0.72065273    -1.02800
O2258       O  0.50020168  0.79754325  0.83246305    -0.80100
O2259       O  0.49978031  0.79753800  0.66762756    -0.79600
O2260       O  0.58240776  0.75032982  0.79747747    -0.78000
O2261       O  0.91757838  0.74990290  0.79746940    -0.81400
O2262       O  0.91758014  0.75032117  0.70262363    -0.79200
O2263       O  0.58241167  0.74989968  0.70261955    -0.77900
O2264       O  0.54742847  0.83253262  0.75026575    -0.79400
O2265       O  0.95257356  0.83252747  0.74983000    -0.81300
O2266       O  0.58241765  0.79753999  0.75026492    -0.78100
O2267       O  0.91758396  0.79753464  0.74982875    -0.80700
O2268       O  0.54741828  0.75032755  0.83246999    -0.76500
O2269       O  0.54742152  0.74989800  0.66762733    -0.76500
O2270       O  0.95256988  0.75032382  0.66763192    -0.76100
O2271       O  0.95256634  0.74990102  0.83246368    -0.79600
O2272       O  0.50020495  0.83253472  0.79747192    -0.79100
O2273       O  0.49978198  0.83252945  0.70261849    -0.77400
Eu2274     Eu  0.49999405  0.75011371  0.80867326     2.39800
Eu2275     Eu  0.49999786  0.75011320  0.69142337     2.39600
Eu2276     Eu  0.55861931  0.75011608  0.75004844     2.38400
Eu2277     Eu  0.94137706  0.75010990  0.75004701     2.39900
Eu2278     Eu  0.50000027  0.80873830  0.75004708     2.39800
O2279       O  0.97066767  0.77944470  0.72071643    -0.91800
O2280       O  0.52932834  0.77944662  0.77938324    -0.90700
C2281       C  0.50023046  0.82405214  0.82398057     1.03400
C2282       C  0.49975149  0.82404678  0.67610974     1.02100
C2283       C  0.57392643  0.75035755  0.82398638     1.01500
C2284       C  0.92605850  0.74987413  0.82397868     1.03500
C2285       C  0.92606149  0.75035121  0.67611493     1.02400
C2286       C  0.57392992  0.74986889  0.67611022     1.01200
C2287       C  0.57393713  0.82404931  0.75029543     1.01300
C2288       C  0.92606568  0.82404339  0.74979894     1.03900
H2289       H  0.54142084  0.79153729  0.70862409     0.31300
O2290       O  0.52939113  0.77950814  0.72065312    -1.04000
H2291       H  0.95857581  0.79153476  0.79146542     0.33300
O2292       O  0.97060658  0.77950541  0.77943759    -1.06500
O2293       O  0.83244242  0.99991274  0.70264374    -0.79100
O2294       O  0.66760388  0.00033240  0.70259917    -0.80600
O2295       O  0.75023775  0.95269530  0.66762412    -0.77700
O2296       O  0.74979419  0.54753977  0.66762529    -0.76100
O2297       O  0.74978926  0.58253145  0.70261544    -0.77800
O2298       O  0.75022512  0.91770305  0.70261423    -0.78800
O2299       O  0.70260212  0.00033340  0.66761592    -0.80100
O2300       O  0.79745654  0.99990867  0.66764686    -0.80400
Eu2301     Eu  0.75002178  0.00011659  0.69142330     2.39200
O2302       O  0.72066474  0.52944744  0.72070961    -0.87900
O2303       O  0.77934928  0.97078565  0.72072170    -0.91500
C2304       C  0.82396369  0.99988307  0.67613420     1.03200
C2305       C  0.67609153  0.00036336  0.67609200     1.03000
C2306       C  0.75026006  0.92618657  0.67610574     1.02900
C2307       C  0.74976284  0.57404850  0.67610680     1.00800
H2308       H  0.70859707  0.95869216  0.70861528     0.30600
O2309       O  0.72062435  0.97072099  0.72064695    -1.00300
H2310       H  0.79142455  0.54154001  0.70862769     0.30600
O2311       O  0.77939411  0.52951071  0.72065585    -1.02800
O2312       O  0.66758496  0.99991023  0.79745513    -0.80100
O2313       O  0.83242090  0.00034193  0.79749091    -0.79600
O2314       O  0.70258923  0.91769100  0.75025735    -0.78000
O2315       O  0.70257174  0.58253458  0.74983045    -0.81400
O2316       O  0.79742040  0.58253551  0.75025717    -0.79200
O2317       O  0.79743761  0.91769732  0.74982848    -0.77900
O2318       O  0.74978395  0.95269006  0.83246603    -0.79400
O2319       O  0.75019962  0.54754279  0.83245988    -0.81300
O2320       O  0.74978955  0.91769946  0.79747424    -0.78100
O2321       O  0.75020877  0.58253397  0.79746878    -0.80700
O2322       O  0.66759772  0.95268176  0.75024853    -0.76500
O2323       O  0.83242811  0.95268938  0.74984194    -0.76500
O2324       O  0.83241156  0.54754457  0.75026347    -0.76100
O2325       O  0.66758035  0.54754344  0.74983001    -0.79600
O2326       O  0.70257036  0.99991004  0.83245248    -0.79100
O2327       O  0.79742299  0.00033550  0.83247444    -0.77400
Eu2328     Eu  0.69138647  0.00011256  0.75003284     2.39800
Eu2329     Eu  0.80863560  0.00011723  0.75006045     2.39600
Eu2330     Eu  0.75001254  0.94149042  0.75004528     2.38400
Eu2331     Eu  0.74999577  0.55873923  0.75004360     2.39900
Eu2332     Eu  0.75000311  0.00011424  0.80866911     2.39800
O2333       O  0.77932203  0.52944797  0.77938216    -0.91800
O2334       O  0.72067584  0.97078281  0.77937091    -0.90700
C2335       C  0.67606273  0.99988393  0.82396547     1.03400
C2336       C  0.82393307  0.00037023  0.82399764     1.02100
C2337       C  0.67608035  0.92617274  0.75028244     1.01500
C2338       C  0.67606318  0.57405234  0.74980240     1.03500
C2339       C  0.82392897  0.57405311  0.75028826     1.02400
C2340       C  0.82394581  0.92618043  0.74980414     1.01200
C2341       C  0.74975511  0.92618150  0.82398320     1.01300
C2342       C  0.75023337  0.57405151  0.82397741     1.03900
H2343       H  0.79143076  0.95868983  0.79147693     0.31300
O2344       O  0.77940297  0.97071878  0.77944610    -1.04000
H2345       H  0.70856888  0.54153725  0.79146062     0.33300
O2346       O  0.72059917  0.52950736  0.77943247    -1.06500
O2347       O  0.70256912  0.66769923  0.00026176    -0.79100
O2348       O  0.70257235  0.83253395  0.99982896    -0.80600
O2349       O  0.66757707  0.74990698  0.54746665    -0.77700
O2350       O  0.66758467  0.75033442  0.95261324    -0.76100
O2351       O  0.70257694  0.75032720  0.91762373    -0.77800
O2352       O  0.70256633  0.74990411  0.58245977    -0.78800
O2353       O  0.66757915  0.79754483  0.99982375    -0.80100
O2354       O  0.66757975  0.70269176  0.00025743    -0.80400
Eu2355     Eu  0.69137315  0.75011999  0.00004161     2.39200
O2356       O  0.72066966  0.77944988  0.97071165    -0.87900
O2357       O  0.72066099  0.72078774  0.52937574    -0.91500
C2358       C  0.67606090  0.67618230  0.00028919     1.03200
C2359       C  0.67606314  0.82405283  0.99979605     1.03000
C2360       C  0.67605807  0.74987571  0.57397593     1.02900
C2361       C  0.67606809  0.75036043  0.92610512     1.00800
H2362       H  0.70857347  0.79154254  0.54146510     0.30600
O2363       O  0.72060293  0.77951250  0.52943672    -1.00300
H2364       H  0.70857433  0.70869681  0.95862172     0.30600
O2365       O  0.72060375  0.72072587  0.97065117    -1.02800
O2366       O  0.79742791  0.83253261  0.00026055    -0.80100
O2367       O  0.79741757  0.66769754  0.99983460    -0.79600
O2368       O  0.75020782  0.79754295  0.58246398    -0.78000
O2369       O  0.74978511  0.79754323  0.91763188    -0.81400
O2370       O  0.75021396  0.70268493  0.91763211    -0.79200
O2371       O  0.74976878  0.70269127  0.58246176    -0.77900
O2372       O  0.83241274  0.75032411  0.54747668    -0.79400
O2373       O  0.83241470  0.74990238  0.95261939    -0.81300
O2374       O  0.79741906  0.75032704  0.58246494    -0.78100
O2375       O  0.79742428  0.74990211  0.91762725    -0.80700
O2376       O  0.75021262  0.83253396  0.54747290    -0.76500
O2377       O  0.74976893  0.66770041  0.54747061    -0.76500
O2378       O  0.75019965  0.66769469  0.95262382    -0.76100
O2379       O  0.74978511  0.83253499  0.95262260    -0.79600
O2380       O  0.83241749  0.79753984  0.00026334    -0.79100
O2381       O  0.83241121  0.70268618  0.99983292    -0.77400
Eu2382     Eu  0.75000004  0.80874063  0.00004680     2.39800
Eu2383     Eu  0.74999330  0.69149448  0.00004607     2.39600
Eu2384     Eu  0.74999342  0.75011799  0.55866861     2.38400
Eu2385     Eu  0.75000065  0.75011465  0.94142205     2.39900
Eu2386     Eu  0.80862201  0.75011387  0.00004797     2.39800
O2387       O  0.77933157  0.72078083  0.97071411    -0.91800
O2388       O  0.77933091  0.77944795  0.52937961    -0.90700
C2389       C  0.82393633  0.82404911  0.00029120     1.03400
C2390       C  0.82392674  0.67617826  0.99980455     1.02100
C2391       C  0.75024029  0.82405156  0.57398146     1.01500
C2392       C  0.74975412  0.82405209  0.92611428     1.03500
C2393       C  0.75023463  0.67617618  0.92611503     1.02400
C2394       C  0.74973738  0.67618253  0.57397913     1.01200
C2395       C  0.82392844  0.75035395  0.57398478     1.01300
C2396       C  0.82393250  0.74987327  0.92611028     1.03900
H2397       H  0.79141356  0.70869359  0.54146993     0.31300
O2398       O  0.77938655  0.72072400  0.52943965    -1.04000
H2399       H  0.79142140  0.79153556  0.95862729     0.33300
O2400       O  0.77939143  0.77950645  0.97065611    -1.06500
C2401       C  0.74982549  0.59594389  0.65420902    -0.17500
C2402       C  0.74990223  0.61434023  0.63581095     0.06600
C2403       C  0.74989188  0.63588534  0.61426931     0.08400
C2404       C  0.74980193  0.65428505  0.59587469    -0.18300
C2405       C  0.75017838  0.84594826  0.59587735    -0.17500
C2406       C  0.75009852  0.86434728  0.61427236     0.06600
C2407       C  0.75010342  0.88589321  0.63581259     0.08400
C2408       C  0.75019145  0.90429125  0.65420854    -0.18300
C2409       C  0.74981516  0.90428475  0.84587947    -0.17500
C2410       C  0.74989610  0.88588789  0.86427686     0.06600
C2411       C  0.74989529  0.86434541  0.88582083     0.08400
C2412       C  0.74981417  0.84594852  0.90421807    -0.18300
C2413       C  0.75016708  0.59594779  0.84587425    -0.17500
C2414       C  0.75008153  0.61434278  0.86427366     0.06600
C2415       C  0.75008038  0.63588310  0.88582023     0.08400
C2416       C  0.75016563  0.65427890  0.90421891    -0.18300
C2417       C  0.84582561  0.59594883  0.75021920    -0.17500
C2418       C  0.86422489  0.61434342  0.75013292     0.06600
C2419       C  0.88577038  0.63588391  0.75013242     0.08400
C2420       C  0.90416824  0.65427998  0.75021770    -0.18300
C2421       C  0.84584134  0.90428369  0.74986519    -0.17500
C2422       C  0.86423498  0.88588356  0.74994641     0.06600
C2423       C  0.88577393  0.86433686  0.74994513     0.08400
C2424       C  0.90416917  0.84593852  0.74986189    -0.18300
C2425       C  0.65416738  0.59594948  0.74987229    -0.17500
C2426       C  0.63577040  0.61434669  0.74996087     0.06600
C2427       C  0.61422638  0.63588911  0.74996491     0.08400
C2428       C  0.59582820  0.65428504  0.74988145    -0.18300
C2429       C  0.65418373  0.90427513  0.75021801    -0.17500
C2430       C  0.63578522  0.88587859  0.75013690     0.06600
C2431       C  0.61423771  0.86433823  0.75014235     0.08400
C2432       C  0.59583632  0.84594455  0.75022995    -0.18300
C2433       C  0.90416390  0.75028474  0.65421928    -0.17500
C2434       C  0.88576547  0.75020057  0.63582316     0.06600
C2435       C  0.86422087  0.75020115  0.61428067     0.08400
C2436       C  0.84582363  0.75028640  0.59588325    -0.18300
C2437       C  0.59582625  0.74993353  0.65421307    -0.17500
C2438       C  0.61422152  0.75001856  0.63581390     0.06600
C2439       C  0.63576356  0.75002104  0.61426900     0.08400
C2440       C  0.65416053  0.74993924  0.59587160    -0.18300
C2441       C  0.65417181  0.75029566  0.90420867    -0.17500
C2442       C  0.63577220  0.75021073  0.88581409     0.06600
C2443       C  0.61422504  0.75020837  0.86427482     0.08400
C2444       C  0.59582451  0.75029146  0.84588112    -0.18300
C2445       C  0.90416039  0.74994252  0.84587267    -0.17500
C2446       C  0.88576326  0.75002703  0.86426920     0.06600
C2447       C  0.86422222  0.75002529  0.88581393     0.08400
C2448       C  0.84582793  0.74993966  0.90421336    -0.18300
C2449       C  0.84583412  0.84594503  0.50022564    -0.17500
C2450       C  0.86423196  0.86434188  0.50014313     0.06600
C2451       C  0.88577560  0.88588549  0.50014710     0.08400
C2452       C  0.90417262  0.90428312  0.50023449    -0.18300
C2453       C  0.84582220  0.65428144  0.49987050    -0.17500
C2454       C  0.86422274  0.63588806  0.49995512     0.06600
C2455       C  0.88577099  0.61435019  0.49995454     0.08400
C2456       C  0.90417040  0.59595558  0.49986868    -0.18300
C2457       C  0.65416761  0.84594970  0.49985978    -0.17500
C2458       C  0.63577042  0.86434636  0.49994320     0.06600
C2459       C  0.61422860  0.88589032  0.49994188     0.08400
C2460       C  0.59583351  0.90428895  0.49985628    -0.18300
C2461       C  0.65416403  0.65428519  0.50022373    -0.17500
C2462       C  0.63576889  0.63588546  0.50014001     0.06600
C2463       C  0.61422703  0.61433979  0.50014195     0.08400
C2464       C  0.59582917  0.59594291  0.50022741    -0.18300
C2465       C  0.84581176  0.50029665  0.84589025    -0.17500
C2466       C  0.86421450  0.50020929  0.86428150     0.06600
C2467       C  0.88576653  0.50020460  0.88581554     0.08400
C2468       C  0.90416800  0.50028670  0.90420804    -0.18300
C2469       C  0.59582676  0.49993608  0.90422109    -0.17500
C2470       C  0.61421632  0.00002265  0.88579554     0.06600
C2471       C  0.63576071  0.00003340  0.86425235     0.08400
C2472       C  0.65414888  0.49994425  0.84586656    -0.18300
C2473       C  0.65417678  0.50029139  0.65420239    -0.17500
C2474       C  0.63577667  0.50020554  0.63580789     0.06600
C2475       C  0.61422454  0.50020275  0.61427281     0.08400
C2476       C  0.59581980  0.50028617  0.59588282    -0.18300
C2477       C  0.90415364  0.49993336  0.59586962    -0.17500
C2478       C  0.88579528  0.00001327  0.61429725     0.06600
C2479       C  0.86425827  0.00002578  0.63584478     0.08400
C2480       C  0.84584034  0.49994242  0.65422950    -0.18300
C2481       C  0.49984578  0.59593776  0.90420851    -0.17500
C2482       C  0.99993840  0.61433368  0.88581048     0.06600
C2483       C  0.99994202  0.63587818  0.86426882     0.08400
C2484       C  0.49985327  0.65427792  0.84587456    -0.18300
C2485       C  0.50015946  0.84594838  0.84587732    -0.17500
C2486       C  0.50007014  0.86434384  0.86427608     0.06600
C2487       C  0.00006561  0.88588505  0.88582134     0.08400
C2488       C  0.50015068  0.90428147  0.90421910    -0.18300
C2489       C  0.49983111  0.90428303  0.59587733    -0.17500
C2490       C  0.99991221  0.88588502  0.61427365     0.06600
C2491       C  0.49990731  0.86434052  0.63581587     0.08400
C2492       C  0.49981894  0.84594309  0.65421281    -0.18300
C2493       C  0.50019196  0.65428179  0.65421623    -0.17500
C2494       C  0.00010788  0.63588425  0.63581957     0.06600
C2495       C  0.00010202  0.61434108  0.61427628     0.08400
C2496       C  0.50017859  0.59594483  0.59587837    -0.18300
loop_ 
_geom_bond_atom_site_label_1 
_geom_bond_atom_site_label_2 
_geom_bond_distance 
_geom_bond_site_symmetry_2 
_ccdc_geom_bond_type 
O1           C12   1.290       .  A
O1          Eu37   2.458       .  S
O2           C13   1.290       .  A
O2          Eu36   2.458       .  S
O3           C14   1.290       .  A
O3           Eu9   2.458       .  S
O4           C15   1.290       .  A
O4        Eu1257   2.458   1_556  S
O5           C15   1.290       .  A
O5          Eu39   2.458   1_556  S
O6           C14   1.290       .  A
O6          Eu38   2.458       .  S
O7           C13   1.290       .  A
O7         Eu321   2.458   1_655  S
O8           C12   1.290       .  A
O8           Eu9   2.458       .  S
Eu9        O1252   2.458   1_454  S
Eu9         O319   2.458   1_454  S
Eu9          O11   2.353       .  S
Eu9        O1267   2.354   1_455  S
Eu9        O1570   2.353   1_454  S
Eu9         O329   2.354   1_554  S
O10       Eu1569   2.353       .  S
O10        Eu351   2.353       .  S
O10       Eu1284   2.353       .  S
O11         Eu37   2.353       .  S
O11         Eu38   2.353       .  S
C12         C312   1.435       .  S
C13         C297   1.435       .  S
C14         C280   1.435       .  S
C15         C272   1.435       .  S
H16          O17   0.965       .  S
O17         Eu36   2.354   1_455  S
O17        Eu321   2.354       .  S
O17        Eu350   2.354       .  S
H18          O19   0.965       .  S
O19         Eu39   2.354       .  S
O19       Eu1257   2.354       .  S
O19       Eu1285   2.354       .  S
O20          C43   1.290       .  A
O20        Eu660   2.458   1_455  S
O21          C44   1.290       .  A
O21        Eu661   2.458       .  S
O22          C45   1.290       .  A
O22        Eu350   2.458   1_565  S
O23          C46   1.290       .  A
O23        Eu351   2.458       .  S
O24          C47   1.290       .  A
O24         Eu39   2.458   1_565  S
O25          C48   1.290       .  A
O25         Eu38   2.458       .  S
O26          C49   1.290       .  A
O26         Eu40   2.458   1_456  S
O27          C50   1.290       .  A
O27       Eu1288   2.458       .  S
O28          C49   1.289       .  A
O28        Eu662   2.458   1_556  S
O29          C50   1.290       .  A
O29        Eu663   2.458       .  S
O30          C45   1.290       .  A
O30         Eu36   2.458   1_465  S
O31          C48   1.290       .  A
O31         Eu37   2.458       .  S
O32          C47   1.290       .  A
O32       Eu1285   2.458   1_565  S
O33          C46   1.290       .  A
O33       Eu1284   2.458       .  S
O34          C43   1.290       .  A
O34        Eu352   2.458   1_455  S
O35          C44   1.290       .  A
O35         Eu40   2.458       .  S
Eu36        O644   2.458   1_645  S
Eu36       O1281   2.458       .  S
Eu36       O1258   2.353       .  S
Eu36       O1926   2.354   1_545  S
Eu36        O666   2.353   1_645  S
Eu37        O645   2.458   1_445  S
Eu37       O1280   2.458   1_445  S
Eu37       O1267   2.354   1_455  S
Eu37       O1913   2.353   1_445  S
Eu37        O676   2.354   1_545  S
Eu38        O334   2.458   1_544  S
Eu38        O652   2.458   1_544  S
Eu38        O329   2.354   1_554  S
Eu38        O676   2.354   1_545  S
Eu38        O978   2.353   1_544  S
Eu39        O335   2.458   1_554  S
Eu39        O653   2.458   1_545  S
Eu39        O322   2.353   1_554  S
Eu39        O665   2.353   1_545  S
Eu39        O990   2.354   1_544  S
Eu40       O1275   2.458       .  S
Eu40        O346   2.458   1_654  S
Eu40         O52   2.354   1_655  S
Eu40       O1289   2.353       .  S
Eu40       O1614   2.354   1_554  S
Eu40        O354   2.353   1_654  S
O41       Eu1909   2.353       .  S
O41        Eu663   2.353       .  S
O41       Eu1288   2.353       .  S
O42        Eu660   2.353   1_455  S
O42        Eu974   2.353       .  S
O42        Eu352   2.353   1_455  S
C43         C304   1.435       .  S
C44         C305   1.435       .  S
C45         C285   1.435       .  S
C46         C284   1.435       .  S
C47         C293   1.435       .  S
C48         C292   1.435       .  S
C49         C276   1.435       .  S
C50         C268   1.435       .  S
H51          O52   0.965       .  S
O52        Eu661   2.354   1_455  S
O52        Eu662   2.354       .  S
H53          O54   0.965       .  S
O54       Eu1908   2.354       .  S
O54        Eu975   2.354       .  S
O54       Eu1600   2.354       .  S
O55          C66   1.290       .  A
O55         Eu91   2.458   1_455  S
O56          C67   1.290       .  A
O56         Eu90   2.458       .  S
O57          C68   1.290       .  A
O57         Eu63   2.458       .  S
O58          C69   1.290       .  A
O58       Eu1311   2.458       .  S
O59          C69   1.290       .  A
O59         Eu93   2.458       .  S
O60          C68   1.290       .  A
O60         Eu92   2.458       .  S
O61          C67   1.290       .  A
O61         Eu63   2.458   1_655  S
O62          C66   1.290       .  A
O62         Eu63   2.458       .  S
Eu63       O1306   2.458   1_455  S
Eu63         O65   2.353       .  S
Eu63         O71   2.354       .  S
Eu63       O1321   2.354   1_455  S
Eu63       O1312   2.353   1_455  S
O64         Eu93   2.353       .  S
O64       Eu1311   2.353       .  S
O64       Eu1338   2.353       .  S
O65         Eu91   2.353   1_455  S
O65         Eu92   2.353       .  S
C66         C309   1.435       .  S
C67         C300   1.435       .  S
C68         C244   1.435       .  S
C69         C236   1.435       .  S
H70          O71   0.965       .  S
O71         Eu92   2.354       .  S
O71         Eu90   2.354   1_455  S
H72          O73   0.965       .  S
O73         Eu93   2.354       .  S
O73       Eu1311   2.354       .  S
O73       Eu1339   2.354       .  S
O74          C97   1.290       .  A
O74         Eu90   2.458   1_455  S
O75          C98   1.290       .  A
O75         Eu91   2.458       .  S
O76          C99   1.290       .  A
O76         Eu92   2.458       .  S
O77         C100   1.290       .  A
O77         Eu93   2.458       .  S
O78         C101   1.290       .  A
O78         Eu93   2.458       .  S
O79         C102   1.290       .  A
O79         Eu92   2.458       .  S
O80         C103   1.290       .  A
O80         Eu94   2.458   1_455  S
O81         C104   1.290       .  A
O81       Eu1342   2.458       .  S
O82         C103   1.290       .  A
O82         Eu92   2.458       .  S
O83         C104   1.290       .  A
O83         Eu93   2.458       .  S
O84          C99   1.290       .  A
O84         Eu90   2.458   1_455  S
O85         C102   1.290       .  A
O85         Eu91   2.458   1_455  S
O86         C101   1.290       .  A
O86       Eu1339   2.458       .  S
O87         C100   1.290       .  A
O87       Eu1338   2.458       .  S
O88          C97   1.290       .  A
O88         Eu94   2.458   1_455  S
O89          C98   1.290       .  A
O89         Eu94   2.458       .  S
Eu90       O1335   2.458       .  S
Eu90         O96   2.353   1_655  S
Eu90       O1312   2.353       .  S
Eu90       O1356   2.354       .  S
Eu91       O1334   2.458       .  S
Eu91        O106   2.354   1_655  S
Eu91       O1321   2.354       .  S
Eu91       O1343   2.353       .  S
Eu92        O106   2.354       .  S
Eu92         O96   2.353       .  S
Eu93         O95   2.353       .  S
Eu93        O108   2.354       .  S
Eu94       O1329   2.458       .  S
Eu94        O106   2.354   1_655  S
Eu94         O96   2.353   1_655  S
Eu94       O1343   2.353       .  S
Eu94       O1356   2.354       .  S
O95       Eu1339   2.353       .  S
O95       Eu1342   2.353       .  S
C97         C301   1.435       .  S
C98         C308   1.435       .  S
C99         C260   1.435       .  S
C100        C261   1.435       .  S
C101        C249   1.435       .  S
C102        C253   1.435       .  S
C103        C248   1.435       .  S
C104        C240   1.435       .  S
H105        O106   0.965       .  S
H107        O108   0.965       .  S
O108      Eu1338   2.354       .  S
O108      Eu1342   2.354       .  S
O109        C120   1.290       .  A
O109       Eu145   2.458       .  S
O110        C121   1.290       .  A
O110       Eu144   2.458       .  S
O111        C122   1.290       .  A
O111       Eu117   2.458       .  S
O112        C123   1.290       .  A
O112       Eu741   2.458       .  S
O113        C123   1.290       .  A
O113       Eu147   2.458       .  S
O114        C122   1.290       .  A
O114       Eu146   2.458       .  S
O115        C121   1.290       .  A
O115       Eu117   2.458       .  S
O116        C120   1.290       .  A
O116       Eu117   2.458       .  S
Eu117       O736   2.458       .  S
Eu117       O119   2.353       .  S
Eu117       O125   2.354       .  S
Eu117       O751   2.354       .  S
Eu117       O742   2.353       .  S
O118       Eu147   2.353       .  S
O118       Eu741   2.353       .  S
O118       Eu768   2.353       .  S
O119       Eu145   2.353       .  S
O119       Eu146   2.353       .  S
C120        C920   1.435       .  S
C121        C913   1.435       .  S
C122        C224   1.435       .  S
C123        C217   1.435       .  S
H124        O125   0.965       .  S
O125       Eu146   2.354       .  S
O125       Eu144   2.354       .  S
H126        O127   0.965       .  S
O127       Eu147   2.354       .  S
O127       Eu741   2.354       .  S
O127       Eu769   2.354       .  S
O128        C151   1.290       .  A
O128       Eu144   2.458       .  S
O129        C152   1.290       .  A
O129       Eu145   2.458       .  S
O130        C153   1.290       .  A
O130       Eu146   2.458       .  S
O131        C154   1.290       .  A
O131       Eu147   2.458       .  S
O132        C155   1.290       .  A
O132       Eu147   2.458       .  S
O133        C156   1.290       .  A
O133       Eu146   2.458       .  S
O134        C157   1.290       .  A
O134       Eu148   2.458       .  S
O135        C158   1.290       .  A
O135       Eu772   2.458       .  S
O136        C157   1.290       .  A
O136       Eu146   2.458       .  S
O137        C158   1.290       .  A
O137       Eu147   2.458       .  S
O138        C153   1.290       .  A
O138       Eu144   2.458       .  S
O139        C156   1.290       .  A
O139       Eu145   2.458       .  S
O140        C155   1.290       .  A
O140       Eu769   2.458       .  S
O141        C154   1.290       .  A
O141       Eu768   2.458       .  S
O142        C151   1.290       .  A
O142       Eu148   2.458       .  S
O143        C152   1.290       .  A
O143       Eu148   2.458       .  S
Eu144       O765   2.458       .  S
Eu144       O150   2.353       .  S
Eu144       O742   2.353       .  S
Eu144       O786   2.354       .  S
Eu145       O764   2.458       .  S
Eu145       O160   2.354       .  S
Eu145       O751   2.354       .  S
Eu145       O773   2.353       .  S
Eu146       O160   2.354       .  S
Eu146       O150   2.353       .  S
Eu147       O149   2.353       .  S
Eu147       O162   2.354       .  S
Eu148       O759   2.458       .  S
Eu148       O160   2.354       .  S
Eu148       O150   2.353       .  S
Eu148       O773   2.353       .  S
Eu148       O786   2.354       .  S
O149       Eu769   2.353       .  S
O149       Eu772   2.353       .  S
C151        C912   1.435       .  S
C152        C905   1.435       .  S
C153        C245   1.435       .  S
C154        C241   1.435       .  S
C155        C233   1.435       .  S
C156        C237   1.435       .  S
C157        C225   1.435       .  S
C158        C229   1.435       .  S
H159        O160   0.965       .  S
H161        O162   0.965       .  S
O162       Eu768   2.354       .  S
O162       Eu772   2.354       .  S
O163        C174   1.290       .  A
O163       Eu199   2.458       .  S
O164        C175   1.290       .  A
O164       Eu198   2.458       .  S
O165        C176   1.290       .  A
O165       Eu483   2.458       .  S
O166        C177   1.290       .  A
O166       Eu171   2.458       .  S
O167        C177   1.290       .  A
O167       Eu201   2.458       .  S
O168        C176   1.290       .  A
O168       Eu200   2.458       .  S
O169        C175   1.290       .  A
O169       Eu171   2.458       .  S
O170        C174   1.290       .  A
O170       Eu171   2.458       .  S
Eu171       O477   2.458       .  S
Eu171       O181   2.354       .  S
Eu171       O172   2.353       .  S
Eu171       O485   2.353       .  S
Eu171       O491   2.354       .  S
O172       Eu201   2.353       .  S
O172       Eu198   2.353       .  S
O173       Eu200   2.353       .  S
O173       Eu483   2.353       .  S
O173       Eu511   2.353       .  S
C174        C589   1.435       .  S
C175        C585   1.435       .  S
C176        C256   1.435       .  S
C177        C257   1.435       .  S
H178        O179   0.965       .  S
O179       Eu200   2.354       .  S
O179       Eu483   2.354       .  S
O179       Eu510   2.354       .  S
H180        O181   0.965       .  S
O181       Eu199   2.354       .  S
O181       Eu201   2.354       .  S
O182        C205   1.290       .  A
O182       Eu198   2.458       .  S
O183        C206   1.290       .  A
O183       Eu199   2.458       .  S
O184        C207   1.290       .  A
O184       Eu200   2.458       .  S
O185        C208   1.290       .  A
O185       Eu201   2.458       .  S
O186        C209   1.290       .  A
O186       Eu201   2.458       .  S
O187        C210   1.290       .  A
O187       Eu200   2.458       .  S
O188        C211   1.290       .  A
O188       Eu514   2.458       .  S
O189        C212   1.290       .  A
O189       Eu202   2.458       .  S
O190        C211   1.290       .  A
O190       Eu200   2.458       .  S
O191        C212   1.290       .  A
O191       Eu201   2.458       .  S
O192        C207   1.290       .  A
O192       Eu510   2.458       .  S
O193        C210   1.290       .  A
O193       Eu511   2.458       .  S
O194        C209   1.290       .  A
O194       Eu199   2.458       .  S
O195        C208   1.290       .  A
O195       Eu198   2.458       .  S
O196        C205   1.290       .  A
O196       Eu202   2.458       .  S
O197        C206   1.290       .  A
O197       Eu202   2.458       .  S
Eu198       O504   2.458       .  S
Eu198       O216   2.354       .  S
Eu198       O491   2.354       .  S
Eu198       O516   2.353       .  S
Eu199       O505   2.458       .  S
Eu199       O203   2.353       .  S
Eu199       O485   2.353       .  S
Eu199       O526   2.354       .  S
Eu200       O214   2.354       .  S
Eu200       O204   2.353       .  S
Eu201       O203   2.353       .  S
Eu201       O216   2.354       .  S
Eu202       O500   2.458       .  S
Eu202       O203   2.353       .  S
Eu202       O216   2.354       .  S
Eu202       O526   2.354       .  S
Eu202       O516   2.353       .  S
O204       Eu510   2.353       .  S
O204       Eu514   2.353       .  S
C205        C577   1.435       .  S
C206        C581   1.435       .  S
C207        C221   1.435       .  S
C208        C228   1.435       .  S
C209        C232   1.435       .  S
C210        C220   1.435       .  S
C211        C252   1.435       .  S
C212        C264   1.435       .  S
H213        O214   0.965       .  S
O214       Eu511   2.354       .  S
O214       Eu514   2.354       .  S
H215        O216   0.965       .  S
C217        C218   1.205       .  T
C218        C219   1.412       .  S
C219        C220   1.205       .  T
C221        C222   1.205       .  T
C222        C223   1.412       .  S
C223        C224   1.205       .  T
C225        C226   1.205       .  T
C226        C227   1.412       .  S
C227        C228   1.205       .  T
C229        C230   1.205       .  T
C230        C231   1.412       .  S
C231        C232   1.205       .  T
C233        C234   1.205       .  T
C234        C235   1.412       .  S
C235        C236   1.205       .  T
C237        C238   1.205       .  T
C238        C239   1.412       .  S
C239        C240   1.205       .  T
C241        C242   1.205       .  T
C242        C243   1.412       .  S
C243        C244   1.205       .  T
C245        C246   1.205       .  T
C246        C247   1.412       .  S
C247        C248   1.205       .  T
C249        C250   1.205       .  T
C250        C251   1.412       .  S
C251        C252   1.205       .  T
C253        C254   1.205       .  T
C254        C255   1.412       .  S
C255        C256   1.205       .  T
C257        C258   1.205       .  T
C258        C259   1.412       .  S
C259        C260   1.205       .  T
C261        C262   1.205       .  T
C262        C263   1.412       .  S
C263        C264   1.205       .  T
C265        C517   1.435       .  S
C265        C266   1.205       .  T
C266        C267   1.412       .  S
C267        C268   1.205       .  T
C269        C518   1.435       .  S
C269        C270   1.205       .  T
C270        C271   1.412       .  S
C271        C272   1.205       .  T
C273        C487   1.435       .  S
C273        C274   1.205       .  T
C274        C275   1.412       .  S
C275        C276   1.205       .  T
C277        C486   1.435       .  S
C277        C278   1.205       .  T
C278        C279   1.412       .  S
C279        C280   1.205       .  T
C281        C776   1.435       .  S
C281        C282   1.205       .  T
C282        C283   1.412       .  S
C283        C284   1.205       .  T
C285        C910   1.205   1_565  T
C286        C909   1.205       .  T
C286        C287   1.412       .  S
C287        C912   1.205       .  T
C288        C775   1.435       .  S
C288        C911   1.205   1_565  T
C289        C745   1.435       .  S
C289        C290   1.205       .  T
C290        C291   1.412       .  S
C291        C292   1.205       .  T
C293        C918   1.205   1_565  T
C294        C917   1.205       .  T
C294        C295   1.412       .  S
C295        C920   1.205       .  T
C296        C744   1.435       .  S
C296        C919   1.205   1_565  T
C297       C1546   1.205       .  T
C298       C1545   1.205       .  T
C298        C299   1.412       .  S
C299       C1548   1.205       .  T
C300       C1547   1.205       .  T
C301        C302   1.205       .  T
C302       C1551   1.412       .  S
C303       C1552   1.205       .  T
C303       C1550   1.412       .  S
C304       C1551   1.205       .  T
C305       C1554   1.205       .  T
C306       C1553   1.205       .  T
C306       C1555   1.412       .  S
C307        C308   1.205       .  T
C307       C1554   1.412       .  S
C309       C1558   1.205       .  T
C310       C1557   1.205       .  T
C310        C311   1.412       .  S
C311       C1560   1.205       .  T
C312       C1559   1.205       .  T
O313        C324   1.290       .  A
O313       Eu349   2.458       .  S
O314        C325   1.290       .  A
O314       Eu348   2.458       .  S
O315        C326   1.290       .  A
O315       Eu321   2.458       .  S
O316        C327   1.290       .  A
O316      Eu1569   2.458       .  S
O317        C327   1.290       .  A
O317       Eu351   2.458       .  S
O318        C326   1.290       .  A
O318       Eu350   2.458       .  S
O319        C325   1.290       .  A
O320        C324   1.290       .  A
O320       Eu321   2.458       .  S
Eu321      O1564   2.458   1_455  S
Eu321      O1579   2.354   1_455  S
Eu321       O323   2.353       .  S
Eu321      O1258   2.353   1_455  S
O322      Eu1257   2.353   1_556  S
O322      Eu1596   2.353       .  S
O323       Eu349   2.353       .  S
O323       Eu350   2.353       .  S
C324        C624   1.435       .  S
C325        C609   1.435       .  S
C326        C592   1.435       .  S
C327        C584   1.435       .  S
H328        O329   0.965       .  S
O329       Eu348   2.354   1_455  S
H330        O331   0.965       .  S
O331      Eu1569   2.354       .  S
O331      Eu1597   2.354       .  S
O331       Eu351   2.354       .  S
O332        C355   1.290       .  A
O332       Eu972   2.458   1_455  S
O333        C356   1.290       .  A
O333       Eu973   2.458       .  S
O334        C357   1.290       .  A
O335        C358   1.290       .  A
O336        C359   1.290       .  A
O336       Eu351   2.458   1_565  S
O337        C360   1.290       .  A
O337       Eu350   2.458       .  S
O338        C361   1.290       .  A
O338       Eu352   2.458   1_455  S
O339        C362   1.290       .  A
O339      Eu1600   2.458       .  S
O340        C361   1.289       .  A
O340       Eu974   2.458       .  S
O341        C362   1.290       .  A
O341       Eu975   2.458       .  S
O342        C357   1.290       .  A
O342       Eu348   2.458   1_465  S
O343        C360   1.290       .  A
O343       Eu349   2.458       .  S
O344        C359   1.290       .  A
O344      Eu1597   2.458   1_565  S
O345        C358   1.290       .  A
O345      Eu1596   2.458       .  S
O346        C355   1.290       .  A
O347        C356   1.290       .  A
O347       Eu352   2.458       .  S
Eu348       O956   2.458   1_645  S
Eu348      O1593   2.458       .  S
Eu348      O1570   2.353       .  S
Eu348      O2238   2.354   1_545  S
Eu348       O978   2.353   1_645  S
Eu349       O957   2.458   1_445  S
Eu349      O1592   2.458   1_445  S
Eu349      O1579   2.354   1_455  S
Eu349      O2225   2.353   1_445  S
Eu349       O988   2.354   1_545  S
Eu350       O964   2.458   1_545  S
Eu350       O988   2.354   1_545  S
Eu350       O666   2.353   1_545  S
Eu351       O965   2.458   1_545  S
Eu351       O977   2.353   1_545  S
Eu351       O678   2.354   1_545  S
Eu352      O1587   2.458       .  S
Eu352      O1601   2.353       .  S
Eu352       O364   2.354   1_655  S
Eu352      O1302   2.354       .  S
O353      Eu2221   2.353       .  S
O353       Eu975   2.353       .  S
O353      Eu1600   2.353       .  S
O354       Eu972   2.353   1_455  S
O354       Eu662   2.353   1_556  S
C355        C616   1.435       .  S
C356        C617   1.435       .  S
C357        C597   1.435       .  S
C358        C596   1.435       .  S
C359        C605   1.435       .  S
C360        C604   1.435       .  S
C361        C588   1.435       .  S
C362        C580   1.435       .  S
H363        O364   0.965       .  S
O364       Eu973   2.354   1_455  S
O364       Eu974   2.354       .  S
H365        O366   0.965       .  S
O366      Eu2220   2.354       .  S
O366       Eu663   2.354   1_556  S
O366      Eu1288   2.354   1_556  S
O367        C378   1.290       .  A
O367       Eu403   2.458   1_455  S
O368        C379   1.290       .  A
O368       Eu402   2.458       .  S
O369        C380   1.290       .  A
O369       Eu375   2.458       .  S
O370        C381   1.290       .  A
O370      Eu1623   2.458       .  S
O371        C381   1.290       .  A
O371       Eu405   2.458       .  S
O372        C380   1.290       .  A
O372       Eu404   2.458       .  S
O373        C379   1.290       .  A
O373       Eu375   2.458   1_655  S
O374        C378   1.290       .  A
O374       Eu375   2.458       .  S
Eu375      O1618   2.458   1_455  S
Eu375      O1633   2.354   1_455  S
Eu375       O377   2.353       .  S
Eu375      O1624   2.353   1_455  S
Eu375       O383   2.354       .  S
O376      Eu1623   2.353       .  S
O376       Eu405   2.353       .  S
O376      Eu1650   2.353       .  S
O377       Eu403   2.353   1_455  S
O377       Eu404   2.353       .  S
C378        C621   1.435       .  S
C379        C612   1.435       .  S
C380        C556   1.435       .  S
C381        C548   1.435       .  S
H382        O383   0.965       .  S
O383       Eu404   2.354       .  S
O383       Eu402   2.354   1_455  S
H384        O385   0.965       .  S
O385      Eu1623   2.354       .  S
O385      Eu1651   2.354       .  S
O385       Eu405   2.354       .  S
O386        C409   1.290       .  A
O386       Eu402   2.458   1_455  S
O387        C410   1.290       .  A
O387       Eu403   2.458       .  S
O388        C411   1.290       .  A
O388       Eu404   2.458       .  S
O389        C412   1.290       .  A
O389       Eu405   2.458       .  S
O390        C413   1.290       .  A
O390       Eu405   2.458       .  S
O391        C414   1.290       .  A
O391       Eu404   2.458       .  S
O392        C415   1.290       .  A
O392       Eu406   2.458   1_455  S
O393        C416   1.290       .  A
O393      Eu1654   2.458       .  S
O394        C415   1.290       .  A
O394       Eu404   2.458       .  S
O395        C416   1.290       .  A
O395       Eu405   2.458       .  S
O396        C411   1.290       .  A
O396       Eu402   2.458   1_455  S
O397        C414   1.290       .  A
O397       Eu403   2.458   1_455  S
O398        C413   1.290       .  A
O398      Eu1651   2.458       .  S
O399        C412   1.290       .  A
O399      Eu1650   2.458       .  S
O400        C409   1.290       .  A
O400       Eu406   2.458   1_455  S
O401        C410   1.290       .  A
O401       Eu406   2.458       .  S
Eu402      O1647   2.458       .  S
Eu402      O1624   2.353       .  S
Eu402      O1668   2.354       .  S
Eu402       O408   2.353   1_655  S
Eu403      O1646   2.458       .  S
Eu403      O1633   2.354       .  S
Eu403      O1655   2.353       .  S
Eu403       O418   2.354   1_655  S
Eu404       O418   2.354       .  S
Eu404       O408   2.353       .  S
Eu405       O407   2.353       .  S
Eu405       O420   2.354       .  S
Eu406      O1641   2.458       .  S
Eu406      O1655   2.353       .  S
Eu406       O418   2.354   1_655  S
Eu406      O1668   2.354       .  S
Eu406       O408   2.353   1_655  S
O407      Eu1651   2.353       .  S
O407      Eu1654   2.353       .  S
C409        C613   1.435       .  S
C410        C620   1.435       .  S
C411        C572   1.435       .  S
C412        C573   1.435       .  S
C413        C561   1.435       .  S
C414        C565   1.435       .  S
C415        C560   1.435       .  S
C416        C552   1.435       .  S
H417        O418   0.965       .  S
H419        O420   0.965       .  S
O420      Eu1650   2.354       .  S
O420      Eu1654   2.354       .  S
O421        C432   1.290       .  A
O421       Eu457   2.458       .  S
O422        C433   1.290       .  A
O422       Eu456   2.458       .  S
O423        C434   1.290       .  A
O423       Eu429   2.458       .  S
O424        C435   1.290       .  A
O424      Eu1053   2.458       .  S
O425        C435   1.290       .  A
O425       Eu459   2.458       .  S
O426        C434   1.290       .  A
O426       Eu458   2.458       .  S
O427        C433   1.290       .  A
O427       Eu429   2.458       .  S
O428        C432   1.290       .  A
O428       Eu429   2.458       .  S
Eu429      O1048   2.458       .  S
Eu429      O1063   2.354       .  S
Eu429       O431   2.353       .  S
Eu429      O1054   2.353       .  S
Eu429       O437   2.354       .  S
O430      Eu1053   2.353       .  S
O430       Eu459   2.353       .  S
O430      Eu1080   2.353       .  S
O431       Eu457   2.353       .  S
O431       Eu458   2.353       .  S
C432       C1232   1.435       .  S
C433       C1225   1.435       .  S
C434        C536   1.435       .  S
C435        C529   1.435       .  S
H436        O437   0.965       .  S
O437       Eu458   2.354       .  S
O437       Eu456   2.354       .  S
H438        O439   0.965       .  S
O439      Eu1053   2.354       .  S
O439      Eu1081   2.354       .  S
O439       Eu459   2.354       .  S
O440        C463   1.290       .  A
O440       Eu456   2.458       .  S
O441        C464   1.290       .  A
O441       Eu457   2.458       .  S
O442        C465   1.290       .  A
O442       Eu458   2.458       .  S
O443        C466   1.290       .  A
O443       Eu459   2.458       .  S
O444        C467   1.290       .  A
O444       Eu459   2.458       .  S
O445        C468   1.290       .  A
O445       Eu458   2.458       .  S
O446        C469   1.290       .  A
O446       Eu460   2.458       .  S
O447        C470   1.290       .  A
O447      Eu1084   2.458       .  S
O448        C469   1.290       .  A
O448       Eu458   2.458       .  S
O449        C470   1.290       .  A
O449       Eu459   2.458       .  S
O450        C465   1.290       .  A
O450       Eu456   2.458       .  S
O451        C468   1.290       .  A
O451       Eu457   2.458       .  S
O452        C467   1.290       .  A
O452      Eu1081   2.458       .  S
O453        C466   1.290       .  A
O453      Eu1080   2.458       .  S
O454        C463   1.290       .  A
O454       Eu460   2.458       .  S
O455        C464   1.290       .  A
O455       Eu460   2.458       .  S
Eu456      O1077   2.458       .  S
Eu456      O1054   2.353       .  S
Eu456      O1098   2.354       .  S
Eu456       O462   2.353       .  S
Eu457      O1076   2.458       .  S
Eu457      O1063   2.354       .  S
Eu457      O1085   2.353       .  S
Eu457       O472   2.354       .  S
Eu458       O472   2.354       .  S
Eu458       O462   2.353       .  S
Eu459       O461   2.353       .  S
Eu459       O474   2.354       .  S
Eu460      O1071   2.458       .  S
Eu460      O1085   2.353       .  S
Eu460       O472   2.354       .  S
Eu460      O1098   2.354       .  S
Eu460       O462   2.353       .  S
O461      Eu1081   2.353       .  S
O461      Eu1084   2.353       .  S
C463       C1224   1.435       .  S
C464       C1217   1.435       .  S
C465        C557   1.435       .  S
C466        C553   1.435       .  S
C467        C545   1.435       .  S
C468        C549   1.435       .  S
C469        C537   1.435       .  S
C470        C541   1.435       .  S
H471        O472   0.965       .  S
H473        O474   0.965       .  S
O474      Eu1080   2.354       .  S
O474      Eu1084   2.354       .  S
O475        C486   1.290       .  A
O475       Eu511   2.458       .  S
O476        C487   1.290       .  A
O476       Eu510   2.458   1_556  S
O477        C488   1.290       .  A
O478        C489   1.290       .  A
O478       Eu483   2.458   1_556  S
O479        C489   1.290       .  A
O479       Eu513   2.458       .  S
O480        C488   1.290       .  A
O480       Eu512   2.458       .  S
O481        C487   1.290       .  A
O481       Eu483   2.458   1_556  S
O482        C486   1.290       .  A
O482       Eu483   2.458       .  S
Eu483       O493   2.354   1_554  S
Eu483       O484   2.353   1_554  S
O484       Eu513   2.353       .  S
O484       Eu510   2.353   1_556  S
O485       Eu512   2.353       .  S
C488        C568   1.435       .  S
C489        C569   1.435       .  S
H490        O491   0.965       .  S
O491       Eu512   2.354       .  S
H492        O493   0.965       .  S
O493       Eu511   2.354   1_556  S
O493       Eu513   2.354       .  S
O494        C517   1.290       .  A
O494       Eu510   2.458       .  S
O495        C518   1.290       .  A
O495       Eu511   2.458   1_556  S
O496        C519   1.290       .  A
O496       Eu512   2.458       .  S
O497        C520   1.290       .  A
O497       Eu513   2.458       .  S
O498        C521   1.290       .  A
O498       Eu513   2.458       .  S
O499        C522   1.290       .  A
O499       Eu512   2.458       .  S
O500        C523   1.290       .  A
O501        C524   1.290       .  A
O501       Eu514   2.458   1_556  S
O502        C523   1.290       .  A
O502       Eu512   2.458       .  S
O503        C524   1.290       .  A
O503       Eu513   2.458       .  S
O504        C519   1.290       .  A
O505        C522   1.290       .  A
O506        C521   1.290       .  A
O506       Eu511   2.458   1_556  S
O507        C520   1.290       .  A
O507       Eu510   2.458   1_556  S
O508        C517   1.290       .  A
O508       Eu514   2.458       .  S
O509        C518   1.290       .  A
O509       Eu514   2.458   1_556  S
Eu510       O528   2.354   1_554  S
Eu511       O515   2.353   1_554  S
Eu512       O526   2.354       .  S
Eu512       O516   2.353       .  S
Eu513       O515   2.353       .  S
Eu513       O528   2.354       .  S
Eu514       O515   2.353   1_554  S
Eu514       O528   2.354   1_554  S
C519        C533   1.435       .  S
C520        C540   1.435       .  S
C521        C544   1.435       .  S
C522        C532   1.435       .  S
C523        C564   1.435       .  S
C524        C576   1.435       .  S
H525        O526   0.965       .  S
H527        O528   0.965       .  S
C529        C530   1.205       .  T
C530        C531   1.412       .  S
C531        C532   1.205       .  T
C533        C534   1.205       .  T
C534        C535   1.412       .  S
C535        C536   1.205       .  T
C537        C538   1.205       .  T
C538        C539   1.412       .  S
C539        C540   1.205       .  T
C541        C542   1.205       .  T
C542        C543   1.412       .  S
C543        C544   1.205       .  T
C545        C546   1.205       .  T
C546        C547   1.412       .  S
C547        C548   1.205       .  T
C549        C550   1.205       .  T
C550        C551   1.412       .  S
C551        C552   1.205       .  T
C553        C554   1.205       .  T
C554        C555   1.412       .  S
C555        C556   1.205       .  T
C557        C558   1.205       .  T
C558        C559   1.412       .  S
C559        C560   1.205       .  T
C561        C562   1.205       .  T
C562        C563   1.412       .  S
C563        C564   1.205       .  T
C565        C566   1.205       .  T
C566        C567   1.412       .  S
C567        C568   1.205       .  T
C569        C570   1.205       .  T
C570        C571   1.412       .  S
C571        C572   1.205       .  T
C573        C574   1.205       .  T
C574        C575   1.412       .  S
C575        C576   1.205       .  T
C577        C578   1.205       .  T
C578        C579   1.412       .  S
C579        C580   1.205       .  T
C581        C582   1.205       .  T
C582        C583   1.412       .  S
C583        C584   1.205       .  T
C585        C586   1.205       .  T
C586        C587   1.412       .  S
C587        C588   1.205       .  T
C589        C590   1.205       .  T
C590        C591   1.412       .  S
C591        C592   1.205       .  T
C593       C1088   1.435       .  S
C593        C594   1.205       .  T
C594        C595   1.412       .  S
C595        C596   1.205       .  T
C597       C1222   1.205   1_565  T
C598       C1221   1.205       .  T
C598        C599   1.412       .  S
C599       C1224   1.205       .  T
C600       C1087   1.435       .  S
C600       C1223   1.205   1_565  T
C601       C1057   1.435       .  S
C601        C602   1.205       .  T
C602        C603   1.412       .  S
C603        C604   1.205       .  T
C605       C1230   1.205   1_565  T
C606       C1229   1.205       .  T
C606        C607   1.412       .  S
C607       C1232   1.205       .  T
C608       C1056   1.435       .  S
C608       C1231   1.205   1_565  T
C609       C1858   1.205       .  T
C610       C1857   1.205       .  T
C610        C611   1.412       .  S
C611       C1860   1.205       .  T
C612       C1859   1.205       .  T
C613        C614   1.205       .  T
C614       C1863   1.412       .  S
C615       C1864   1.205       .  T
C615       C1862   1.412       .  S
C616       C1863   1.205       .  T
C617       C1866   1.205       .  T
C618       C1865   1.205       .  T
C618       C1867   1.412       .  S
C619        C620   1.205       .  T
C619       C1866   1.412       .  S
C621       C1870   1.205       .  T
C622       C1869   1.205       .  T
C622        C623   1.412       .  S
C623       C1872   1.205       .  T
C624       C1871   1.205       .  T
O625        C636   1.290       .  A
O625       Eu661   2.458   1_455  S
O626        C637   1.290       .  A
O626       Eu660   2.458       .  S
O627        C638   1.290       .  A
O627       Eu633   2.458   1_455  S
O628        C639   1.290       .  A
O628      Eu1881   2.458   1_556  S
O629        C639   1.290       .  A
O629       Eu663   2.458   1_556  S
O630        C638   1.290       .  A
O630       Eu662   2.458       .  S
O631        C637   1.290       .  A
O631       Eu945   2.458       .  S
O632        C636   1.290       .  A
O632       Eu633   2.458   1_455  S
Eu633      O1876   2.458   1_554  S
Eu633       O943   2.458   1_554  S
Eu633      O1891   2.354       .  S
Eu633       O635   2.353   1_655  S
Eu633      O2194   2.353   1_554  S
Eu633       O953   2.354   1_654  S
O634      Eu2193   2.353       .  S
O634       Eu975   2.353       .  S
O634      Eu1908   2.353       .  S
O635       Eu661   2.353   1_455  S
O635       Eu662   2.353       .  S
C636        C936   1.435       .  S
C637        C921   1.435       .  S
C638        C904   1.435       .  S
C639        C896   1.435       .  S
H640        O641   0.965       .  S
O641       Eu945   2.354   1_455  S
O641       Eu974   2.354       .  S
O641       Eu660   2.354   1_455  S
H642        O643   0.965       .  S
O643      Eu1881   2.354       .  S
O643      Eu1909   2.354       .  S
O643       Eu663   2.354       .  S
O644        C667   1.290       .  A
O645        C668   1.290       .  A
O646        C669   1.290       .  A
O646       Eu974   2.458       .  S
O647        C670   1.290       .  A
O647       Eu975   2.458       .  S
O648        C671   1.290       .  A
O648       Eu663   2.458       .  S
O649        C672   1.290       .  A
O649       Eu662   2.458       .  S
O650        C673   1.290       .  A
O650       Eu664   2.458   1_556  S
O651        C674   1.290       .  A
O651      Eu1912   2.458       .  S
O652        C673   1.290       .  A
O653        C674   1.290       .  A
O654        C669   1.290       .  A
O654       Eu660   2.458   1_455  S
O655        C672   1.290       .  A
O655       Eu661   2.458   1_455  S
O656        C671   1.290       .  A
O656      Eu1909   2.458       .  S
O657        C670   1.290       .  A
O657      Eu1908   2.458       .  S
O658        C667   1.290       .  A
O658       Eu976   2.458       .  S
O659        C668   1.290       .  A
O659       Eu664   2.458   1_655  S
Eu660      O1905   2.458       .  S
Eu660      O1882   2.353       .  S
Eu660      O1302   2.354       .  S
Eu661      O1904   2.458       .  S
Eu661      O1891   2.354       .  S
Eu661      O1289   2.353       .  S
Eu662       O958   2.458   1_554  S
Eu662       O953   2.354   1_554  S
Eu663       O959   2.458   1_554  S
Eu663       O946   2.353   1_554  S
Eu664      O1899   2.458   1_455  S
Eu664       O970   2.458   1_554  S
Eu664      O1913   2.353   1_455  S
Eu664       O676   2.354       .  S
Eu664      O2238   2.354   1_454  S
Eu664       O978   2.353   1_554  S
O665      Eu1285   2.353   1_565  S
O665      Eu1912   2.353       .  S
O666       Eu976   2.353       .  S
C667        C928   1.435       .  S
C668        C929   1.435       .  S
C669        C909   1.435       .  S
C670        C908   1.435       .  S
C671        C917   1.435       .  S
C672        C916   1.435       .  S
C673        C900   1.435       .  S
C674        C892   1.435       .  S
H675        O676   0.965       .  S
H677        O678   0.965       .  S
O678      Eu1284   2.354   1_565  S
O678      Eu2224   2.354       .  S
O679        C690   1.290       .  A
O679       Eu715   2.458   1_455  S
O680        C691   1.290       .  A
O680       Eu714   2.458       .  S
O681        C692   1.290       .  A
O681       Eu687   2.458   1_455  S
O682        C693   1.290       .  A
O682      Eu1935   2.458       .  S
O683        C693   1.290       .  A
O683       Eu717   2.458       .  S
O684        C692   1.290       .  A
O684       Eu716   2.458       .  S
O685        C691   1.290       .  A
O685       Eu687   2.458       .  S
O686        C690   1.290       .  A
O686       Eu687   2.458   1_455  S
Eu687      O1930   2.458       .  S
Eu687      O1945   2.354       .  S
Eu687       O689   2.353   1_655  S
Eu687      O1936   2.353       .  S
Eu687       O695   2.354   1_655  S
O688      Eu1935   2.353       .  S
O688       Eu717   2.353       .  S
O688      Eu1962   2.353       .  S
O689       Eu715   2.353   1_455  S
O689       Eu716   2.353       .  S
C690        C933   1.435       .  S
C691        C924   1.435       .  S
C692        C868   1.435       .  S
C693        C860   1.435       .  S
H694        O695   0.965       .  S
O695       Eu716   2.354       .  S
O695       Eu714   2.354   1_455  S
H696        O697   0.965       .  S
O697      Eu1935   2.354       .  S
O697      Eu1963   2.354       .  S
O697       Eu717   2.354       .  S
O698        C721   1.290       .  A
O698       Eu714   2.458   1_455  S
O699        C722   1.290       .  A
O699       Eu715   2.458       .  S
O700        C723   1.290       .  A
O700       Eu716   2.458       .  S
O701        C724   1.290       .  A
O701       Eu717   2.458       .  S
O702        C725   1.290       .  A
O702       Eu717   2.458       .  S
O703        C726   1.290       .  A
O703       Eu716   2.458       .  S
O704        C727   1.290       .  A
O704       Eu718   2.458       .  S
O705        C728   1.290       .  A
O705      Eu1966   2.458       .  S
O706        C727   1.290       .  A
O706       Eu716   2.458       .  S
O707        C728   1.290       .  A
O707       Eu717   2.458       .  S
O708        C723   1.290       .  A
O708       Eu714   2.458   1_455  S
O709        C726   1.290       .  A
O709       Eu715   2.458   1_455  S
O710        C725   1.290       .  A
O710      Eu1963   2.458       .  S
O711        C724   1.290       .  A
O711      Eu1962   2.458       .  S
O712        C721   1.290       .  A
O712       Eu718   2.458       .  S
O713        C722   1.290       .  A
O713       Eu718   2.458   1_655  S
Eu714      O1959   2.458       .  S
Eu714      O1936   2.353       .  S
Eu714      O1980   2.354       .  S
Eu714       O720   2.353   1_655  S
Eu715      O1958   2.458       .  S
Eu715      O1945   2.354       .  S
Eu715      O1967   2.353       .  S
Eu715       O730   2.354   1_655  S
Eu716       O730   2.354       .  S
Eu716       O720   2.353       .  S
Eu717       O719   2.353       .  S
Eu717       O732   2.354       .  S
Eu718      O1953   2.458   1_455  S
Eu718      O1967   2.353   1_455  S
Eu718       O730   2.354       .  S
Eu718      O1980   2.354   1_455  S
Eu718       O720   2.353       .  S
O719      Eu1963   2.353       .  S
O719      Eu1966   2.353       .  S
C721        C925   1.435       .  S
C722        C932   1.435       .  S
C723        C884   1.435       .  S
C724        C885   1.435       .  S
C725        C873   1.435       .  S
C726        C877   1.435       .  S
C727        C872   1.435       .  S
C728        C864   1.435       .  S
H729        O730   0.965       .  S
H731        O732   0.965       .  S
O732      Eu1962   2.354       .  S
O732      Eu1966   2.354       .  S
O733        C744   1.290       .  A
O733       Eu769   2.458   1_565  S
O734        C745   1.290       .  A
O734       Eu768   2.458       .  S
O735        C746   1.290       .  A
O735       Eu741   2.458   1_565  S
O736        C747   1.290       .  A
O737        C747   1.290       .  A
O737       Eu771   2.458       .  S
O738        C746   1.290       .  A
O738       Eu770   2.458       .  S
O739        C745   1.290       .  A
O739       Eu741   2.458       .  S
O740        C744   1.290       .  A
O740       Eu741   2.458   1_565  S
Eu741       O743   2.353   1_545  S
Eu741       O749   2.354   1_545  S
O742       Eu771   2.353       .  S
O743       Eu769   2.353   1_565  S
O743       Eu770   2.353       .  S
C746        C848   1.435       .  S
C747        C841   1.435       .  S
H748        O749   0.965       .  S
O749       Eu770   2.354       .  S
O749       Eu768   2.354   1_565  S
H750        O751   0.965       .  S
O751       Eu771   2.354       .  S
O752        C775   1.290       .  A
O752       Eu768   2.458   1_565  S
O753        C776   1.290       .  A
O753       Eu769   2.458       .  S
O754        C777   1.290       .  A
O754       Eu770   2.458       .  S
O755        C778   1.290       .  A
O755       Eu771   2.458       .  S
O756        C779   1.290       .  A
O756       Eu771   2.458       .  S
O757        C780   1.290       .  A
O757       Eu770   2.458       .  S
O758        C781   1.290       .  A
O758       Eu772   2.458   1_565  S
O759        C782   1.290       .  A
O760        C781   1.290       .  A
O760       Eu770   2.458       .  S
O761        C782   1.290       .  A
O761       Eu771   2.458       .  S
O762        C777   1.290       .  A
O762       Eu768   2.458   1_565  S
O763        C780   1.290       .  A
O763       Eu769   2.458   1_565  S
O764        C779   1.290       .  A
O765        C778   1.290       .  A
O766        C775   1.290       .  A
O766       Eu772   2.458   1_565  S
O767        C776   1.290       .  A
O767       Eu772   2.458       .  S
Eu768       O774   2.353   1_545  S
Eu769       O784   2.354   1_545  S
Eu770       O784   2.354       .  S
Eu770       O774   2.353       .  S
Eu771       O773   2.353       .  S
Eu771       O786   2.354       .  S
Eu772       O784   2.354   1_545  S
Eu772       O774   2.353   1_545  S
C777        C869   1.435       .  S
C778        C865   1.435       .  S
C779        C857   1.435       .  S
C780        C861   1.435       .  S
C781        C849   1.435       .  S
C782        C853   1.435       .  S
H783        O784   0.965       .  S
H785        O786   0.965       .  S
O787        C798   1.290       .  A
O787       Eu823   2.458       .  S
O788        C799   1.290       .  A
O788       Eu822   2.458       .  S
O789        C800   1.290       .  A
O789      Eu1107   2.458       .  S
O790        C801   1.290       .  A
O790       Eu795   2.458       .  S
O791        C801   1.290       .  A
O791       Eu825   2.458       .  S
O792        C800   1.290       .  A
O792       Eu824   2.458       .  S
O793        C799   1.290       .  A
O793       Eu795   2.458       .  S
O794        C798   1.290       .  A
O794       Eu795   2.458       .  S
Eu795      O1101   2.458       .  S
Eu795       O805   2.354       .  S
Eu795      O1109   2.353       .  S
Eu795       O796   2.353       .  S
Eu795      O1115   2.354       .  S
O796       Eu825   2.353       .  S
O796       Eu822   2.353       .  S
O797      Eu1107   2.353       .  S
O797      Eu1135   2.353       .  S
O797       Eu824   2.353       .  S
C798       C1213   1.435       .  S
C799       C1209   1.435       .  S
C800        C880   1.435       .  S
C801        C881   1.435       .  S
H802        O803   0.965       .  S
O803      Eu1107   2.354       .  S
O803       Eu824   2.354       .  S
O803      Eu1134   2.354       .  S
H804        O805   0.965       .  S
O805       Eu823   2.354       .  S
O805       Eu825   2.354       .  S
O806        C829   1.290       .  A
O806       Eu822   2.458       .  S
O807        C830   1.290       .  A
O807       Eu823   2.458       .  S
O808        C831   1.290       .  A
O808       Eu824   2.458       .  S
O809        C832   1.290       .  A
O809       Eu825   2.458       .  S
O810        C833   1.290       .  A
O810       Eu825   2.458       .  S
O811        C834   1.290       .  A
O811       Eu824   2.458       .  S
O812        C835   1.290       .  A
O812      Eu1138   2.458       .  S
O813        C836   1.290       .  A
O813       Eu826   2.458       .  S
O814        C835   1.290       .  A
O814       Eu824   2.458       .  S
O815        C836   1.290       .  A
O815       Eu825   2.458       .  S
O816        C831   1.290       .  A
O816      Eu1134   2.458       .  S
O817        C834   1.290       .  A
O817      Eu1135   2.458       .  S
O818        C833   1.290       .  A
O818       Eu823   2.458       .  S
O819        C832   1.290       .  A
O819       Eu822   2.458       .  S
O820        C829   1.290       .  A
O820       Eu826   2.458       .  S
O821        C830   1.290       .  A
O821       Eu826   2.458       .  S
Eu822      O1128   2.458       .  S
Eu822      O1115   2.354       .  S
Eu822       O840   2.354       .  S
Eu822      O1140   2.353       .  S
Eu823      O1129   2.458       .  S
Eu823      O1109   2.353       .  S
Eu823       O827   2.353       .  S
Eu823      O1150   2.354       .  S
Eu824       O838   2.354       .  S
Eu824       O828   2.353       .  S
Eu825       O827   2.353       .  S
Eu825       O840   2.354       .  S
Eu826      O1124   2.458       .  S
Eu826       O827   2.353       .  S
Eu826      O1150   2.354       .  S
Eu826       O840   2.354       .  S
Eu826      O1140   2.353       .  S
O828      Eu1134   2.353       .  S
O828      Eu1138   2.353       .  S
C829       C1201   1.435       .  S
C830       C1205   1.435       .  S
C831        C845   1.435       .  S
C832        C852   1.435       .  S
C833        C856   1.435       .  S
C834        C844   1.435       .  S
C835        C876   1.435       .  S
C836        C888   1.435       .  S
H837        O838   0.965       .  S
O838      Eu1135   2.354       .  S
O838      Eu1138   2.354       .  S
H839        O840   0.965       .  S
C841        C842   1.205       .  T
C842        C843   1.412       .  S
C843        C844   1.205       .  T
C845        C846   1.205       .  T
C846        C847   1.412       .  S
C847        C848   1.205       .  T
C849        C850   1.205       .  T
C850        C851   1.412       .  S
C851        C852   1.205       .  T
C853        C854   1.205       .  T
C854        C855   1.412       .  S
C855        C856   1.205       .  T
C857        C858   1.205       .  T
C858        C859   1.412       .  S
C859        C860   1.205       .  T
C861        C862   1.205       .  T
C862        C863   1.412       .  S
C863        C864   1.205       .  T
C865        C866   1.205       .  T
C866        C867   1.412       .  S
C867        C868   1.205       .  T
C869        C870   1.205       .  T
C870        C871   1.412       .  S
C871        C872   1.205       .  T
C873        C874   1.205       .  T
C874        C875   1.412       .  S
C875        C876   1.205       .  T
C877        C878   1.205       .  T
C878        C879   1.412       .  S
C879        C880   1.205       .  T
C881        C882   1.205       .  T
C882        C883   1.412       .  S
C883        C884   1.205       .  T
C885        C886   1.205       .  T
C886        C887   1.412       .  S
C887        C888   1.205       .  T
C889       C1141   1.435       .  S
C889        C890   1.205       .  T
C890        C891   1.412       .  S
C891        C892   1.205       .  T
C893       C1142   1.435       .  S
C893        C894   1.205       .  T
C894        C895   1.412       .  S
C895        C896   1.205       .  T
C897       C1111   1.435       .  S
C897        C898   1.205       .  T
C898        C899   1.412       .  S
C899        C900   1.205       .  T
C901       C1110   1.435       .  S
C901        C902   1.205       .  T
C902        C903   1.412       .  S
C903        C904   1.205       .  T
C905        C906   1.205       .  T
C906        C907   1.412       .  S
C907        C908   1.205       .  T
C910        C911   1.412       .  S
C913        C914   1.205       .  T
C914        C915   1.412       .  S
C915        C916   1.205       .  T
C918        C919   1.411       .  S
C921       C2170   1.205       .  T
C922       C2169   1.205       .  T
C922        C923   1.412       .  S
C923       C2172   1.205       .  T
C924       C2171   1.205       .  T
C925        C926   1.205       .  T
C926       C2175   1.412       .  S
C927       C2176   1.205       .  T
C927       C2174   1.412       .  S
C928       C2175   1.205       .  T
C929       C2178   1.205       .  T
C930       C2177   1.205       .  T
C930       C2179   1.412       .  S
C931        C932   1.205       .  T
C931       C2178   1.412       .  S
C933       C2182   1.205       .  T
C934       C2181   1.205       .  T
C934        C935   1.412       .  S
C935       C2184   1.205       .  T
C936       C2183   1.205       .  T
O937        C948   1.290       .  A
O937       Eu973   2.458   1_455  S
O938        C949   1.290       .  A
O938       Eu972   2.458       .  S
O939        C950   1.290       .  A
O939       Eu945   2.458   1_455  S
O940        C951   1.290       .  A
O940      Eu2193   2.458       .  S
O941        C951   1.290       .  A
O941       Eu975   2.458       .  S
O942        C950   1.290       .  A
O942       Eu974   2.458       .  S
O943        C949   1.290       .  A
O944        C948   1.290       .  A
O944       Eu945   2.458   1_455  S
Eu945      O2188   2.458       .  S
Eu945      O2203   2.354       .  S
Eu945       O947   2.353   1_655  S
Eu945      O1882   2.353       .  S
O946      Eu1881   2.353   1_556  S
O946      Eu2220   2.353       .  S
O947       Eu973   2.353   1_455  S
O947       Eu974   2.353       .  S
C948       C1248   1.435       .  S
C949       C1233   1.435       .  S
C950       C1216   1.435       .  S
C951       C1208   1.435       .  S
H952        O953   0.965       .  S
O953       Eu972   2.354   1_455  S
H954        O955   0.965       .  S
O955      Eu2193   2.354       .  S
O955      Eu2221   2.354       .  S
O955       Eu975   2.354       .  S
O956        C979   1.290       .  A
O957        C980   1.290       .  A
O958        C981   1.290       .  A
O959        C982   1.290       .  A
O960        C983   1.290       .  A
O960       Eu975   2.458       .  S
O961        C984   1.290       .  A
O961       Eu974   2.458       .  S
O962        C985   1.290       .  A
O962       Eu976   2.458       .  S
O963        C986   1.290       .  A
O963      Eu2224   2.458       .  S
O964        C985   1.290       .  A
O965        C986   1.290       .  A
O966        C981   1.290       .  A
O966       Eu972   2.458   1_455  S
O967        C984   1.290       .  A
O967       Eu973   2.458   1_455  S
O968        C983   1.290       .  A
O968      Eu2221   2.458       .  S
O969        C982   1.290       .  A
O969      Eu2220   2.458       .  S
O970        C979   1.290       .  A
O971        C980   1.290       .  A
O971       Eu976   2.458   1_655  S
Eu972      O2217   2.458       .  S
Eu972      O2194   2.353       .  S
Eu972      O1614   2.354       .  S
Eu973      O2216   2.458       .  S
Eu973      O2203   2.354       .  S
Eu973      O1601   2.353       .  S
Eu976      O2211   2.458   1_455  S
Eu976      O2225   2.353   1_455  S
Eu976       O988   2.354       .  S
Eu976      O1926   2.354   1_455  S
O977      Eu1597   2.353   1_565  S
O977      Eu2224   2.353       .  S
C979       C1240   1.435       .  S
C980       C1241   1.435       .  S
C981       C1221   1.435       .  S
C982       C1220   1.435       .  S
C983       C1229   1.435       .  S
C984       C1228   1.435       .  S
C985       C1212   1.435       .  S
C986       C1204   1.435       .  S
H987        O988   0.965       .  S
H989        O990   0.965       .  S
O990      Eu1596   2.354   1_565  S
O990      Eu1912   2.354   1_556  S
O991       C1002   1.290       .  A
O991      Eu1027   2.458   1_455  S
O992       C1003   1.290       .  A
O992      Eu1026   2.458       .  S
O993       C1004   1.290       .  A
O993       Eu999   2.458   1_455  S
O994       C1005   1.290       .  A
O994      Eu2247   2.458       .  S
O995       C1005   1.290       .  A
O995      Eu1029   2.458       .  S
O996       C1004   1.290       .  A
O996      Eu1028   2.458       .  S
O997       C1003   1.290       .  A
O997       Eu999   2.458       .  S
O998       C1002   1.290       .  A
O998       Eu999   2.458   1_455  S
Eu999      O2242   2.458       .  S
Eu999      O2257   2.354       .  S
Eu999      O1001   2.353   1_655  S
Eu999      O2248   2.353       .  S
Eu999      O1007   2.354   1_655  S
O1000     Eu2247   2.353       .  S
O1000     Eu1029   2.353       .  S
O1000     Eu2274   2.353       .  S
O1001     Eu1027   2.353   1_455  S
O1001     Eu1028   2.353       .  S
C1002      C1245   1.435       .  S
C1003      C1236   1.435       .  S
C1004      C1180   1.435       .  S
C1005      C1172   1.435       .  S
H1006      O1007   0.965       .  S
O1007     Eu1028   2.354       .  S
O1007     Eu1026   2.354   1_455  S
H1008      O1009   0.965       .  S
O1009     Eu2247   2.354       .  S
O1009     Eu2275   2.354       .  S
O1009     Eu1029   2.354       .  S
O1010      C1033   1.290       .  A
O1010     Eu1026   2.458   1_455  S
O1011      C1034   1.290       .  A
O1011     Eu1027   2.458       .  S
O1012      C1035   1.290       .  A
O1012     Eu1028   2.458       .  S
O1013      C1036   1.290       .  A
O1013     Eu1029   2.458       .  S
O1014      C1037   1.290       .  A
O1014     Eu1029   2.458       .  S
O1015      C1038   1.290       .  A
O1015     Eu1028   2.458       .  S
O1016      C1039   1.290       .  A
O1016     Eu1030   2.458       .  S
O1017      C1040   1.290       .  A
O1017     Eu2278   2.458       .  S
O1018      C1039   1.290       .  A
O1018     Eu1028   2.458       .  S
O1019      C1040   1.290       .  A
O1019     Eu1029   2.458       .  S
O1020      C1035   1.290       .  A
O1020     Eu1026   2.458   1_455  S
O1021      C1038   1.290       .  A
O1021     Eu1027   2.458   1_455  S
O1022      C1037   1.290       .  A
O1022     Eu2275   2.458       .  S
O1023      C1036   1.290       .  A
O1023     Eu2274   2.458       .  S
O1024      C1033   1.290       .  A
O1024     Eu1030   2.458       .  S
O1025      C1034   1.290       .  A
O1025     Eu1030   2.458   1_655  S
Eu1026     O2271   2.458       .  S
Eu1026     O2248   2.353       .  S
Eu1026     O2292   2.354       .  S
Eu1026     O1032   2.353   1_655  S
Eu1027     O2270   2.458       .  S
Eu1027     O2257   2.354       .  S
Eu1027     O2279   2.353       .  S
Eu1027     O1042   2.354   1_655  S
Eu1028     O1042   2.354       .  S
Eu1028     O1032   2.353       .  S
Eu1029     O1031   2.353       .  S
Eu1029     O1044   2.354       .  S
Eu1030     O2265   2.458   1_455  S
Eu1030     O2279   2.353   1_455  S
Eu1030     O1042   2.354       .  S
Eu1030     O2292   2.354   1_455  S
Eu1030     O1032   2.353       .  S
O1031     Eu2275   2.353       .  S
O1031     Eu2278   2.353       .  S
C1033      C1237   1.435       .  S
C1034      C1244   1.435       .  S
C1035      C1196   1.435       .  S
C1036      C1197   1.435       .  S
C1037      C1185   1.435       .  S
C1038      C1189   1.435       .  S
C1039      C1184   1.435       .  S
C1040      C1176   1.435       .  S
H1041      O1042   0.965       .  S
H1043      O1044   0.965       .  S
O1044     Eu2274   2.354       .  S
O1044     Eu2278   2.354       .  S
O1045      C1056   1.290       .  A
O1045     Eu1081   2.458   1_565  S
O1046      C1057   1.290       .  A
O1046     Eu1080   2.458       .  S
O1047      C1058   1.290       .  A
O1047     Eu1053   2.458   1_565  S
O1048      C1059   1.290       .  A
O1049      C1059   1.290       .  A
O1049     Eu1083   2.458       .  S
O1050      C1058   1.290       .  A
O1050     Eu1082   2.458       .  S
O1051      C1057   1.290       .  A
O1051     Eu1053   2.458       .  S
O1052      C1056   1.290       .  A
O1052     Eu1053   2.458   1_565  S
Eu1053     O1055   2.353   1_545  S
Eu1053     O1061   2.354   1_545  S
O1054     Eu1083   2.353       .  S
O1055     Eu1081   2.353   1_565  S
O1055     Eu1082   2.353       .  S
C1058      C1160   1.435       .  S
C1059      C1153   1.435       .  S
H1060      O1061   0.965       .  S
O1061     Eu1082   2.354       .  S
O1061     Eu1080   2.354   1_565  S
H1062      O1063   0.965       .  S
O1063     Eu1083   2.354       .  S
O1064      C1087   1.290       .  A
O1064     Eu1080   2.458   1_565  S
O1065      C1088   1.290       .  A
O1065     Eu1081   2.458       .  S
O1066      C1089   1.290       .  A
O1066     Eu1082   2.458       .  S
O1067      C1090   1.290       .  A
O1067     Eu1083   2.458       .  S
O1068      C1091   1.290       .  A
O1068     Eu1083   2.458       .  S
O1069      C1092   1.290       .  A
O1069     Eu1082   2.458       .  S
O1070      C1093   1.290       .  A
O1070     Eu1084   2.458   1_565  S
O1071      C1094   1.290       .  A
O1072      C1093   1.290       .  A
O1072     Eu1082   2.458       .  S
O1073      C1094   1.290       .  A
O1073     Eu1083   2.458       .  S
O1074      C1089   1.290       .  A
O1074     Eu1080   2.458   1_565  S
O1075      C1092   1.290       .  A
O1075     Eu1081   2.458   1_565  S
O1076      C1091   1.290       .  A
O1077      C1090   1.290       .  A
O1078      C1087   1.290       .  A
O1078     Eu1084   2.458   1_565  S
O1079      C1088   1.290       .  A
O1079     Eu1084   2.458       .  S
Eu1080     O1086   2.353   1_545  S
Eu1081     O1096   2.354   1_545  S
Eu1082     O1096   2.354       .  S
Eu1082     O1086   2.353       .  S
Eu1083     O1085   2.353       .  S
Eu1083     O1098   2.354       .  S
Eu1084     O1096   2.354   1_545  S
Eu1084     O1086   2.353   1_545  S
C1089      C1181   1.435       .  S
C1090      C1177   1.435       .  S
C1091      C1169   1.435       .  S
C1092      C1173   1.435       .  S
C1093      C1161   1.435       .  S
C1094      C1165   1.435       .  S
H1095      O1096   0.965       .  S
H1097      O1098   0.965       .  S
O1099      C1110   1.290       .  A
O1099     Eu1135   2.458       .  S
O1100      C1111   1.290       .  A
O1100     Eu1134   2.458   1_556  S
O1101      C1112   1.290       .  A
O1102      C1113   1.290       .  A
O1102     Eu1107   2.458   1_556  S
O1103      C1113   1.290       .  A
O1103     Eu1137   2.458       .  S
O1104      C1112   1.290       .  A
O1104     Eu1136   2.458       .  S
O1105      C1111   1.290       .  A
O1105     Eu1107   2.458   1_556  S
O1106      C1110   1.290       .  A
O1106     Eu1107   2.458       .  S
Eu1107     O1117   2.354   1_554  S
Eu1107     O1108   2.353   1_554  S
O1108     Eu1137   2.353       .  S
O1108     Eu1134   2.353   1_556  S
O1109     Eu1136   2.353       .  S
C1112      C1192   1.435       .  S
C1113      C1193   1.435       .  S
H1114      O1115   0.965       .  S
O1115     Eu1136   2.354       .  S
H1116      O1117   0.965       .  S
O1117     Eu1135   2.354   1_556  S
O1117     Eu1137   2.354       .  S
O1118      C1141   1.290       .  A
O1118     Eu1134   2.458       .  S
O1119      C1142   1.290       .  A
O1119     Eu1135   2.458   1_556  S
O1120      C1143   1.290       .  A
O1120     Eu1136   2.458       .  S
O1121      C1144   1.290       .  A
O1121     Eu1137   2.458       .  S
O1122      C1145   1.290       .  A
O1122     Eu1137   2.458       .  S
O1123      C1146   1.290       .  A
O1123     Eu1136   2.458       .  S
O1124      C1147   1.290       .  A
O1125      C1148   1.290       .  A
O1125     Eu1138   2.458   1_556  S
O1126      C1147   1.290       .  A
O1126     Eu1136   2.458       .  S
O1127      C1148   1.290       .  A
O1127     Eu1137   2.458       .  S
O1128      C1143   1.290       .  A
O1129      C1146   1.290       .  A
O1130      C1145   1.290       .  A
O1130     Eu1135   2.458   1_556  S
O1131      C1144   1.290       .  A
O1131     Eu1134   2.458   1_556  S
O1132      C1141   1.290       .  A
O1132     Eu1138   2.458       .  S
O1133      C1142   1.290       .  A
O1133     Eu1138   2.458   1_556  S
Eu1134     O1152   2.354   1_554  S
Eu1135     O1139   2.353   1_554  S
Eu1136     O1150   2.354       .  S
Eu1136     O1140   2.353       .  S
Eu1137     O1139   2.353       .  S
Eu1137     O1152   2.354       .  S
Eu1138     O1139   2.353   1_554  S
Eu1138     O1152   2.354   1_554  S
C1143      C1157   1.435       .  S
C1144      C1164   1.435       .  S
C1145      C1168   1.435       .  S
C1146      C1156   1.435       .  S
C1147      C1188   1.435       .  S
C1148      C1200   1.435       .  S
H1149      O1150   0.965       .  S
H1151      O1152   0.965       .  S
C1153      C1154   1.205       .  T
C1154      C1155   1.412       .  S
C1155      C1156   1.205       .  T
C1157      C1158   1.205       .  T
C1158      C1159   1.412       .  S
C1159      C1160   1.205       .  T
C1161      C1162   1.205       .  T
C1162      C1163   1.412       .  S
C1163      C1164   1.205       .  T
C1165      C1166   1.205       .  T
C1166      C1167   1.412       .  S
C1167      C1168   1.205       .  T
C1169      C1170   1.205       .  T
C1170      C1171   1.412       .  S
C1171      C1172   1.205       .  T
C1173      C1174   1.205       .  T
C1174      C1175   1.412       .  S
C1175      C1176   1.205       .  T
C1177      C1178   1.205       .  T
C1178      C1179   1.412       .  S
C1179      C1180   1.205       .  T
C1181      C1182   1.205       .  T
C1182      C1183   1.412       .  S
C1183      C1184   1.205       .  T
C1185      C1186   1.205       .  T
C1186      C1187   1.412       .  S
C1187      C1188   1.205       .  T
C1189      C1190   1.205       .  T
C1190      C1191   1.412       .  S
C1191      C1192   1.205       .  T
C1193      C1194   1.205       .  T
C1194      C1195   1.412       .  S
C1195      C1196   1.205       .  T
C1197      C1198   1.205       .  T
C1198      C1199   1.412       .  S
C1199      C1200   1.205       .  T
C1201      C1202   1.205       .  T
C1202      C1203   1.412       .  S
C1203      C1204   1.205       .  T
C1205      C1206   1.205       .  T
C1206      C1207   1.412       .  S
C1207      C1208   1.205       .  T
C1209      C1210   1.205       .  T
C1210      C1211   1.412       .  S
C1211      C1212   1.205       .  T
C1213      C1214   1.205       .  T
C1214      C1215   1.412       .  S
C1215      C1216   1.205       .  T
C1217      C1218   1.205       .  T
C1218      C1219   1.412       .  S
C1219      C1220   1.205       .  T
C1222      C1223   1.412       .  S
C1225      C1226   1.205       .  T
C1226      C1227   1.412       .  S
C1227      C1228   1.205       .  T
C1230      C1231   1.411       .  S
C1233      C2482   1.205       .  T
C1234      C2481   1.205       .  T
C1234      C1235   1.412       .  S
C1235      C2484   1.205       .  T
C1236      C2483   1.205       .  T
C1237      C1238   1.205       .  T
C1238      C2487   1.412       .  S
C1239      C2488   1.205       .  T
C1239      C2486   1.412       .  S
C1240      C2487   1.205       .  T
C1241      C2490   1.205       .  T
C1242      C2489   1.205       .  T
C1242      C2491   1.412       .  S
C1243      C1244   1.205       .  T
C1243      C2490   1.412       .  S
C1245      C2494   1.205       .  T
C1246      C2493   1.205       .  T
C1246      C1247   1.412       .  S
C1247      C2496   1.205       .  T
C1248      C2495   1.205       .  T
O1249      C1260   1.290       .  A
O1249     Eu1285   2.458       .  S
O1250      C1261   1.290       .  A
O1250     Eu1284   2.458       .  S
O1251      C1262   1.290       .  A
O1251     Eu1257   2.458       .  S
O1252      C1263   1.290       .  A
O1253      C1263   1.290       .  A
O1253     Eu1287   2.458   1_556  S
O1254      C1262   1.290       .  A
O1254     Eu1286   2.458       .  S
O1255      C1261   1.290       .  A
O1255     Eu1569   2.458       .  S
O1256      C1260   1.290       .  A
O1256     Eu1257   2.458       .  S
Eu1257     O1567   2.458   1_554  S
Eu1257     O1259   2.353       .  S
Eu1257     O1577   2.354   1_554  S
O1258     Eu1599   2.353       .  S
O1259     Eu1285   2.353       .  S
O1259     Eu1286   2.353       .  S
C1260      C1560   1.435       .  S
C1261      C1545   1.435       .  S
C1262      C1528   1.435       .  S
C1263      C1520   1.435       .  S
H1264      O1265   0.965       .  S
O1265     Eu1569   2.354       .  S
O1265     Eu1598   2.354       .  S
O1265     Eu1284   2.354       .  S
H1266      O1267   0.965       .  S
O1267     Eu1287   2.354       .  S
O1268      C1291   1.290       .  A
O1268     Eu1908   2.458       .  S
O1269      C1292   1.290       .  A
O1269     Eu1909   2.458       .  S
O1270      C1293   1.290       .  A
O1270     Eu1598   2.458   1_565  S
O1271      C1294   1.290       .  A
O1271     Eu1599   2.458       .  S
O1272      C1295   1.290       .  A
O1272     Eu1287   2.458   1_565  S
O1273      C1296   1.290       .  A
O1273     Eu1286   2.458       .  S
O1274      C1297   1.290       .  A
O1274     Eu1288   2.458   1_556  S
O1275      C1298   1.290       .  A
O1276      C1297   1.289       .  A
O1276     Eu1910   2.458   1_556  S
O1277      C1298   1.290       .  A
O1277     Eu1911   2.458       .  S
O1278      C1293   1.290       .  A
O1278     Eu1284   2.458   1_565  S
O1279      C1296   1.290       .  A
O1279     Eu1285   2.458       .  S
O1280      C1295   1.290       .  A
O1281      C1294   1.290       .  A
O1282      C1291   1.290       .  A
O1282     Eu1600   2.458       .  S
O1283      C1292   1.290       .  A
O1283     Eu1288   2.458       .  S
Eu1284     O1892   2.458   1_545  S
Eu1284     O1914   2.353   1_545  S
Eu1285     O1893   2.458   1_545  S
Eu1285     O1924   2.354   1_545  S
Eu1286     O1582   2.458   1_544  S
Eu1286     O1900   2.458   1_544  S
Eu1286     O1577   2.354   1_554  S
Eu1286     O1924   2.354   1_545  S
Eu1286     O2226   2.353   1_544  S
Eu1287     O1583   2.458   1_554  S
Eu1287     O1901   2.458   1_545  S
Eu1287     O1570   2.353   1_554  S
Eu1287     O1913   2.353   1_545  S
Eu1287     O2238   2.354   1_544  S
Eu1288     O1594   2.458   1_554  S
Eu1288     O1300   2.354       .  S
Eu1288     O1602   2.353   1_554  S
O1289     Eu1911   2.353       .  S
O1290     Eu1908   2.353       .  S
O1290     Eu2222   2.353       .  S
O1290     Eu1600   2.353       .  S
C1291      C1552   1.435       .  S
C1292      C1553   1.435       .  S
C1293      C1533   1.435       .  S
C1294      C1532   1.435       .  S
C1295      C1541   1.435       .  S
C1296      C1540   1.435       .  S
C1297      C1524   1.435       .  S
C1298      C1516   1.435       .  S
H1299      O1300   0.965       .  S
O1300     Eu1909   2.354       .  S
O1300     Eu1910   2.354       .  S
H1301      O1302   0.965       .  S
O1302     Eu2223   2.354       .  S
O1303      C1314   1.290       .  A
O1303     Eu1339   2.458       .  S
O1304      C1315   1.290       .  A
O1304     Eu1338   2.458       .  S
O1305      C1316   1.290       .  A
O1305     Eu1311   2.458       .  S
O1306      C1317   1.290       .  A
O1307      C1317   1.290       .  A
O1307     Eu1341   2.458       .  S
O1308      C1316   1.290       .  A
O1308     Eu1340   2.458       .  S
O1309      C1315   1.290       .  A
O1309     Eu1311   2.458       .  S
O1310      C1314   1.290       .  A
O1310     Eu1311   2.458       .  S
Eu1311     O1313   2.353       .  S
Eu1311     O1319   2.354       .  S
O1312     Eu1341   2.353       .  S
O1313     Eu1339   2.353       .  S
O1313     Eu1340   2.353       .  S
C1314      C1557   1.435       .  S
C1315      C1548   1.435       .  S
C1316      C1492   1.435       .  S
C1317      C1484   1.435       .  S
H1318      O1319   0.965       .  S
O1319     Eu1340   2.354       .  S
O1319     Eu1338   2.354       .  S
H1320      O1321   0.965       .  S
O1321     Eu1341   2.354       .  S
O1322      C1345   1.290       .  A
O1322     Eu1338   2.458       .  S
O1323      C1346   1.290       .  A
O1323     Eu1339   2.458       .  S
O1324      C1347   1.290       .  A
O1324     Eu1340   2.458       .  S
O1325      C1348   1.290       .  A
O1325     Eu1341   2.458       .  S
O1326      C1349   1.290       .  A
O1326     Eu1341   2.458       .  S
O1327      C1350   1.290       .  A
O1327     Eu1340   2.458       .  S
O1328      C1351   1.290       .  A
O1328     Eu1342   2.458       .  S
O1329      C1352   1.290       .  A
O1330      C1351   1.290       .  A
O1330     Eu1340   2.458       .  S
O1331      C1352   1.290       .  A
O1331     Eu1341   2.458       .  S
O1332      C1347   1.290       .  A
O1332     Eu1338   2.458       .  S
O1333      C1350   1.290       .  A
O1333     Eu1339   2.458       .  S
O1334      C1349   1.290       .  A
O1335      C1348   1.290       .  A
O1336      C1345   1.290       .  A
O1336     Eu1342   2.458       .  S
O1337      C1346   1.290       .  A
O1337     Eu1342   2.458       .  S
Eu1338     O1344   2.353       .  S
Eu1339     O1354   2.354       .  S
Eu1340     O1354   2.354       .  S
Eu1340     O1344   2.353       .  S
Eu1341     O1343   2.353       .  S
Eu1341     O1356   2.354       .  S
Eu1342     O1354   2.354       .  S
Eu1342     O1344   2.353       .  S
C1345      C1549   1.435       .  S
C1346      C1556   1.435       .  S
C1347      C1508   1.435       .  S
C1348      C1509   1.435       .  S
C1349      C1497   1.435       .  S
C1350      C1501   1.435       .  S
C1351      C1496   1.435       .  S
C1352      C1488   1.435       .  S
H1353      O1354   0.965       .  S
H1355      O1356   0.965       .  S
O1357      C1368   1.290       .  A
O1357     Eu1393   2.458       .  S
O1358      C1369   1.290       .  A
O1358     Eu1392   2.458       .  S
O1359      C1370   1.290       .  A
O1359     Eu1365   2.458       .  S
O1360      C1371   1.290       .  A
O1360     Eu1989   2.458       .  S
O1361      C1371   1.290       .  A
O1361     Eu1395   2.458       .  S
O1362      C1370   1.290       .  A
O1362     Eu1394   2.458       .  S
O1363      C1369   1.290       .  A
O1363     Eu1365   2.458       .  S
O1364      C1368   1.290       .  A
O1364     Eu1365   2.458       .  S
Eu1365     O1984   2.458       .  S
Eu1365     O1999   2.354       .  S
Eu1365     O1367   2.353       .  S
Eu1365     O1990   2.353       .  S
Eu1365     O1373   2.354       .  S
O1366     Eu1989   2.353       .  S
O1366     Eu1395   2.353       .  S
O1366     Eu2016   2.353       .  S
O1367     Eu1393   2.353       .  S
O1367     Eu1394   2.353       .  S
C1368      C2168   1.435       .  S
C1369      C2161   1.435       .  S
C1370      C1472   1.435       .  S
C1371      C1465   1.435       .  S
H1372      O1373   0.965       .  S
O1373     Eu1394   2.354       .  S
O1373     Eu1392   2.354       .  S
H1374      O1375   0.965       .  S
O1375     Eu1989   2.354       .  S
O1375     Eu2017   2.354       .  S
O1375     Eu1395   2.354       .  S
O1376      C1399   1.290       .  A
O1376     Eu1392   2.458       .  S
O1377      C1400   1.290       .  A
O1377     Eu1393   2.458       .  S
O1378      C1401   1.290       .  A
O1378     Eu1394   2.458       .  S
O1379      C1402   1.290       .  A
O1379     Eu1395   2.458       .  S
O1380      C1403   1.290       .  A
O1380     Eu1395   2.458       .  S
O1381      C1404   1.290       .  A
O1381     Eu1394   2.458       .  S
O1382      C1405   1.290       .  A
O1382     Eu1396   2.458       .  S
O1383      C1406   1.290       .  A
O1383     Eu2020   2.458       .  S
O1384      C1405   1.290       .  A
O1384     Eu1394   2.458       .  S
O1385      C1406   1.290       .  A
O1385     Eu1395   2.458       .  S
O1386      C1401   1.290       .  A
O1386     Eu1392   2.458       .  S
O1387      C1404   1.290       .  A
O1387     Eu1393   2.458       .  S
O1388      C1403   1.290       .  A
O1388     Eu2017   2.458       .  S
O1389      C1402   1.290       .  A
O1389     Eu2016   2.458       .  S
O1390      C1399   1.290       .  A
O1390     Eu1396   2.458       .  S
O1391      C1400   1.290       .  A
O1391     Eu1396   2.458       .  S
Eu1392     O2013   2.458       .  S
Eu1392     O1990   2.353       .  S
Eu1392     O2034   2.354       .  S
Eu1392     O1398   2.353       .  S
Eu1393     O2012   2.458       .  S
Eu1393     O1999   2.354       .  S
Eu1393     O2021   2.353       .  S
Eu1393     O1408   2.354       .  S
Eu1394     O1408   2.354       .  S
Eu1394     O1398   2.353       .  S
Eu1395     O1397   2.353       .  S
Eu1395     O1410   2.354       .  S
Eu1396     O2007   2.458       .  S
Eu1396     O2021   2.353       .  S
Eu1396     O1408   2.354       .  S
Eu1396     O2034   2.354       .  S
Eu1396     O1398   2.353       .  S
O1397     Eu2017   2.353       .  S
O1397     Eu2020   2.353       .  S
C1399      C2160   1.435       .  S
C1400      C2153   1.435       .  S
C1401      C1493   1.435       .  S
C1402      C1489   1.435       .  S
C1403      C1481   1.435       .  S
C1404      C1485   1.435       .  S
C1405      C1473   1.435       .  S
C1406      C1477   1.435       .  S
H1407      O1408   0.965       .  S
H1409      O1410   0.965       .  S
O1410     Eu2016   2.354       .  S
O1410     Eu2020   2.354       .  S
O1411      C1422   1.290       .  A
O1411     Eu1447   2.458       .  S
O1412      C1423   1.290       .  A
O1412     Eu1446   2.458       .  S
O1413      C1424   1.290       .  A
O1413     Eu1731   2.458       .  S
O1414      C1425   1.290       .  A
O1414     Eu1419   2.458       .  S
O1415      C1425   1.290       .  A
O1415     Eu1449   2.458       .  S
O1416      C1424   1.290       .  A
O1416     Eu1448   2.458       .  S
O1417      C1423   1.290       .  A
O1417     Eu1419   2.458       .  S
O1418      C1422   1.290       .  A
O1418     Eu1419   2.458       .  S
Eu1419     O1725   2.458       .  S
Eu1419     O1429   2.354       .  S
Eu1419     O1733   2.353       .  S
Eu1419     O1420   2.353       .  S
Eu1419     O1739   2.354       .  S
O1420     Eu1449   2.353       .  S
O1420     Eu1446   2.353       .  S
O1421     Eu1731   2.353       .  S
O1421     Eu1759   2.353       .  S
O1421     Eu1448   2.353       .  S
C1422      C1837   1.435       .  S
C1423      C1833   1.435       .  S
C1424      C1504   1.435       .  S
C1425      C1505   1.435       .  S
H1426      O1427   0.965       .  S
O1427     Eu1731   2.354       .  S
O1427     Eu1448   2.354       .  S
O1427     Eu1758   2.354       .  S
H1428      O1429   0.965       .  S
O1429     Eu1447   2.354       .  S
O1429     Eu1449   2.354       .  S
O1430      C1453   1.290       .  A
O1430     Eu1446   2.458       .  S
O1431      C1454   1.290       .  A
O1431     Eu1447   2.458       .  S
O1432      C1455   1.290       .  A
O1432     Eu1448   2.458       .  S
O1433      C1456   1.290       .  A
O1433     Eu1449   2.458       .  S
O1434      C1457   1.290       .  A
O1434     Eu1449   2.458       .  S
O1435      C1458   1.290       .  A
O1435     Eu1448   2.458       .  S
O1436      C1459   1.290       .  A
O1436     Eu1762   2.458       .  S
O1437      C1460   1.290       .  A
O1437     Eu1450   2.458       .  S
O1438      C1459   1.290       .  A
O1438     Eu1448   2.458       .  S
O1439      C1460   1.290       .  A
O1439     Eu1449   2.458       .  S
O1440      C1455   1.290       .  A
O1440     Eu1758   2.458       .  S
O1441      C1458   1.290       .  A
O1441     Eu1759   2.458       .  S
O1442      C1457   1.290       .  A
O1442     Eu1447   2.458       .  S
O1443      C1456   1.290       .  A
O1443     Eu1446   2.458       .  S
O1444      C1453   1.290       .  A
O1444     Eu1450   2.458       .  S
O1445      C1454   1.290       .  A
O1445     Eu1450   2.458       .  S
Eu1446     O1752   2.458       .  S
Eu1446     O1739   2.354       .  S
Eu1446     O1464   2.354       .  S
Eu1446     O1764   2.353       .  S
Eu1447     O1753   2.458       .  S
Eu1447     O1733   2.353       .  S
Eu1447     O1451   2.353       .  S
Eu1447     O1774   2.354       .  S
Eu1448     O1462   2.354       .  S
Eu1448     O1452   2.353       .  S
Eu1449     O1451   2.353       .  S
Eu1449     O1464   2.354       .  S
Eu1450     O1748   2.458       .  S
Eu1450     O1451   2.353       .  S
Eu1450     O1774   2.354       .  S
Eu1450     O1464   2.354       .  S
Eu1450     O1764   2.353       .  S
O1452     Eu1758   2.353       .  S
O1452     Eu1762   2.353       .  S
C1453      C1825   1.435       .  S
C1454      C1829   1.435       .  S
C1455      C1469   1.435       .  S
C1456      C1476   1.435       .  S
C1457      C1480   1.435       .  S
C1458      C1468   1.435       .  S
C1459      C1500   1.435       .  S
C1460      C1512   1.435       .  S
H1461      O1462   0.965       .  S
O1462     Eu1759   2.354       .  S
O1462     Eu1762   2.354       .  S
H1463      O1464   0.965       .  S
C1465      C1466   1.205       .  T
C1466      C1467   1.412       .  S
C1467      C1468   1.205       .  T
C1469      C1470   1.205       .  T
C1470      C1471   1.412       .  S
C1471      C1472   1.205       .  T
C1473      C1474   1.205       .  T
C1474      C1475   1.412       .  S
C1475      C1476   1.205       .  T
C1477      C1478   1.205       .  T
C1478      C1479   1.412       .  S
C1479      C1480   1.205       .  T
C1481      C1482   1.205       .  T
C1482      C1483   1.412       .  S
C1483      C1484   1.205       .  T
C1485      C1486   1.205       .  T
C1486      C1487   1.412       .  S
C1487      C1488   1.205       .  T
C1489      C1490   1.205       .  T
C1490      C1491   1.412       .  S
C1491      C1492   1.205       .  T
C1493      C1494   1.205       .  T
C1494      C1495   1.412       .  S
C1495      C1496   1.205       .  T
C1497      C1498   1.205       .  T
C1498      C1499   1.412       .  S
C1499      C1500   1.205       .  T
C1501      C1502   1.205       .  T
C1502      C1503   1.412       .  S
C1503      C1504   1.205       .  T
C1505      C1506   1.205       .  T
C1506      C1507   1.412       .  S
C1507      C1508   1.205       .  T
C1509      C1510   1.205       .  T
C1510      C1511   1.412       .  S
C1511      C1512   1.205       .  T
C1513      C1765   1.435       .  S
C1513      C1514   1.205       .  T
C1514      C1515   1.412       .  S
C1515      C1516   1.205       .  T
C1517      C1766   1.435       .  S
C1517      C1518   1.205       .  T
C1518      C1519   1.412       .  S
C1519      C1520   1.205       .  T
C1521      C1735   1.435       .  S
C1521      C1522   1.205       .  T
C1522      C1523   1.412       .  S
C1523      C1524   1.205       .  T
C1525      C1734   1.435       .  S
C1525      C1526   1.205       .  T
C1526      C1527   1.412       .  S
C1527      C1528   1.205       .  T
C1529      C2024   1.435       .  S
C1529      C1530   1.205       .  T
C1530      C1531   1.412       .  S
C1531      C1532   1.205       .  T
C1533      C2158   1.205   1_565  T
C1534      C2157   1.205       .  T
C1534      C1535   1.412       .  S
C1535      C2160   1.205       .  T
C1536      C2023   1.435       .  S
C1536      C2159   1.205   1_565  T
C1537      C1993   1.435       .  S
C1537      C1538   1.205       .  T
C1538      C1539   1.412       .  S
C1539      C1540   1.205       .  T
C1541      C2166   1.205   1_565  T
C1542      C2165   1.205       .  T
C1542      C1543   1.412       .  S
C1543      C2168   1.205       .  T
C1544      C1992   1.435       .  S
C1544      C2167   1.205   1_565  T
C1546      C1547   1.412       .  S
C1549      C1550   1.205       .  T
C1555      C1556   1.205       .  T
C1558      C1559   1.412       .  S
O1561      C1572   1.290       .  A
O1561     Eu1597   2.458       .  S
O1562      C1573   1.290       .  A
O1562     Eu1596   2.458       .  S
O1563      C1574   1.290       .  A
O1563     Eu1569   2.458       .  S
O1564      C1575   1.290       .  A
O1565      C1575   1.290       .  A
O1565     Eu1599   2.458       .  S
O1566      C1574   1.290       .  A
O1566     Eu1598   2.458       .  S
O1567      C1573   1.290       .  A
O1568      C1572   1.290       .  A
O1568     Eu1569   2.458       .  S
Eu1569     O1571   2.353       .  S
O1571     Eu1597   2.353       .  S
O1571     Eu1598   2.353       .  S
C1572      C1872   1.435       .  S
C1573      C1857   1.435       .  S
C1574      C1840   1.435       .  S
C1575      C1832   1.435       .  S
H1576      O1577   0.965       .  S
O1577     Eu1596   2.354       .  S
H1578      O1579   0.965       .  S
O1579     Eu1599   2.354       .  S
O1580      C1603   1.290       .  A
O1580     Eu2220   2.458       .  S
O1581      C1604   1.290       .  A
O1581     Eu2221   2.458       .  S
O1582      C1605   1.290       .  A
O1583      C1606   1.290       .  A
O1584      C1607   1.290       .  A
O1584     Eu1599   2.458   1_565  S
O1585      C1608   1.290       .  A
O1585     Eu1598   2.458       .  S
O1586      C1609   1.290       .  A
O1586     Eu1600   2.458       .  S
O1587      C1610   1.290       .  A
O1588      C1609   1.289       .  A
O1588     Eu2222   2.458       .  S
O1589      C1610   1.290       .  A
O1589     Eu2223   2.458       .  S
O1590      C1605   1.290       .  A
O1590     Eu1596   2.458   1_565  S
O1591      C1608   1.290       .  A
O1591     Eu1597   2.458       .  S
O1592      C1607   1.290       .  A
O1593      C1606   1.290       .  A
O1594      C1603   1.290       .  A
O1595      C1604   1.290       .  A
O1595     Eu1600   2.458       .  S
Eu1596     O2204   2.458   1_545  S
Eu1596     O2226   2.353   1_545  S
Eu1597     O2205   2.458   1_545  S
Eu1597     O2236   2.354   1_545  S
Eu1598     O2212   2.458   1_545  S
Eu1598     O2236   2.354   1_545  S
Eu1598     O1914   2.353   1_545  S
Eu1599     O2213   2.458   1_545  S
Eu1599     O2225   2.353   1_545  S
Eu1599     O1926   2.354   1_545  S
Eu1600     O1612   2.354       .  S
O1601     Eu2223   2.353       .  S
O1602     Eu2220   2.353       .  S
O1602     Eu1910   2.353   1_556  S
C1603      C1864   1.435       .  S
C1604      C1865   1.435       .  S
C1605      C1845   1.435       .  S
C1606      C1844   1.435       .  S
C1607      C1853   1.435       .  S
C1608      C1852   1.435       .  S
C1609      C1836   1.435       .  S
C1610      C1828   1.435       .  S
H1611      O1612   0.965       .  S
O1612     Eu2221   2.354       .  S
O1612     Eu2222   2.354       .  S
H1613      O1614   0.965       .  S
O1614     Eu1911   2.354   1_556  S
O1615      C1626   1.290       .  A
O1615     Eu1651   2.458       .  S
O1616      C1627   1.290       .  A
O1616     Eu1650   2.458       .  S
O1617      C1628   1.290       .  A
O1617     Eu1623   2.458       .  S
O1618      C1629   1.290       .  A
O1619      C1629   1.290       .  A
O1619     Eu1653   2.458       .  S
O1620      C1628   1.290       .  A
O1620     Eu1652   2.458       .  S
O1621      C1627   1.290       .  A
O1621     Eu1623   2.458       .  S
O1622      C1626   1.290       .  A
O1622     Eu1623   2.458       .  S
Eu1623     O1625   2.353       .  S
Eu1623     O1631   2.354       .  S
O1624     Eu1653   2.353       .  S
O1625     Eu1651   2.353       .  S
O1625     Eu1652   2.353       .  S
C1626      C1869   1.435       .  S
C1627      C1860   1.435       .  S
C1628      C1804   1.435       .  S
C1629      C1796   1.435       .  S
H1630      O1631   0.965       .  S
O1631     Eu1652   2.354       .  S
O1631     Eu1650   2.354       .  S
H1632      O1633   0.965       .  S
O1633     Eu1653   2.354       .  S
O1634      C1657   1.290       .  A
O1634     Eu1650   2.458       .  S
O1635      C1658   1.290       .  A
O1635     Eu1651   2.458       .  S
O1636      C1659   1.290       .  A
O1636     Eu1652   2.458       .  S
O1637      C1660   1.290       .  A
O1637     Eu1653   2.458       .  S
O1638      C1661   1.290       .  A
O1638     Eu1653   2.458       .  S
O1639      C1662   1.290       .  A
O1639     Eu1652   2.458       .  S
O1640      C1663   1.290       .  A
O1640     Eu1654   2.458       .  S
O1641      C1664   1.290       .  A
O1642      C1663   1.290       .  A
O1642     Eu1652   2.458       .  S
O1643      C1664   1.290       .  A
O1643     Eu1653   2.458       .  S
O1644      C1659   1.290       .  A
O1644     Eu1650   2.458       .  S
O1645      C1662   1.290       .  A
O1645     Eu1651   2.458       .  S
O1646      C1661   1.290       .  A
O1647      C1660   1.290       .  A
O1648      C1657   1.290       .  A
O1648     Eu1654   2.458       .  S
O1649      C1658   1.290       .  A
O1649     Eu1654   2.458       .  S
Eu1650     O1656   2.353       .  S
Eu1651     O1666   2.354       .  S
Eu1652     O1666   2.354       .  S
Eu1652     O1656   2.353       .  S
Eu1653     O1655   2.353       .  S
Eu1653     O1668   2.354       .  S
Eu1654     O1666   2.354       .  S
Eu1654     O1656   2.353       .  S
C1657      C1861   1.435       .  S
C1658      C1868   1.435       .  S
C1659      C1820   1.435       .  S
C1660      C1821   1.435       .  S
C1661      C1809   1.435       .  S
C1662      C1813   1.435       .  S
C1663      C1808   1.435       .  S
C1664      C1800   1.435       .  S
H1665      O1666   0.965       .  S
H1667      O1668   0.965       .  S
O1669      C1680   1.290       .  A
O1669     Eu1705   2.458       .  S
O1670      C1681   1.290       .  A
O1670     Eu1704   2.458       .  S
O1671      C1682   1.290       .  A
O1671     Eu1677   2.458       .  S
O1672      C1683   1.290       .  A
O1672     Eu2301   2.458       .  S
O1673      C1683   1.290       .  A
O1673     Eu1707   2.458       .  S
O1674      C1682   1.290       .  A
O1674     Eu1706   2.458       .  S
O1675      C1681   1.290       .  A
O1675     Eu1677   2.458       .  S
O1676      C1680   1.290       .  A
O1676     Eu1677   2.458       .  S
Eu1677     O2296   2.458       .  S
Eu1677     O2311   2.354       .  S
Eu1677     O1679   2.353       .  S
Eu1677     O2302   2.353       .  S
Eu1677     O1685   2.354       .  S
O1678     Eu2301   2.353       .  S
O1678     Eu1707   2.353       .  S
O1678     Eu2328   2.353       .  S
O1679     Eu1705   2.353       .  S
O1679     Eu1706   2.353       .  S
C1680      C2480   1.435       .  S
C1681      C2473   1.435       .  S
C1682      C1784   1.435       .  S
C1683      C1777   1.435       .  S
H1684      O1685   0.965       .  S
O1685     Eu1706   2.354       .  S
O1685     Eu1704   2.354       .  S
H1686      O1687   0.965       .  S
O1687     Eu2301   2.354       .  S
O1687     Eu2329   2.354       .  S
O1687     Eu1707   2.354       .  S
O1688      C1711   1.290       .  A
O1688     Eu1704   2.458       .  S
O1689      C1712   1.290       .  A
O1689     Eu1705   2.458       .  S
O1690      C1713   1.290       .  A
O1690     Eu1706   2.458       .  S
O1691      C1714   1.290       .  A
O1691     Eu1707   2.458       .  S
O1692      C1715   1.290       .  A
O1692     Eu1707   2.458       .  S
O1693      C1716   1.290       .  A
O1693     Eu1706   2.458       .  S
O1694      C1717   1.290       .  A
O1694     Eu1708   2.458       .  S
O1695      C1718   1.290       .  A
O1695     Eu2332   2.458       .  S
O1696      C1717   1.290       .  A
O1696     Eu1706   2.458       .  S
O1697      C1718   1.290       .  A
O1697     Eu1707   2.458       .  S
O1698      C1713   1.290       .  A
O1698     Eu1704   2.458       .  S
O1699      C1716   1.290       .  A
O1699     Eu1705   2.458       .  S
O1700      C1715   1.290       .  A
O1700     Eu2329   2.458       .  S
O1701      C1714   1.290       .  A
O1701     Eu2328   2.458       .  S
O1702      C1711   1.290       .  A
O1702     Eu1708   2.458       .  S
O1703      C1712   1.290       .  A
O1703     Eu1708   2.458       .  S
Eu1704     O2325   2.458       .  S
Eu1704     O2302   2.353       .  S
Eu1704     O2346   2.354       .  S
Eu1704     O1710   2.353       .  S
Eu1705     O2324   2.458       .  S
Eu1705     O2311   2.354       .  S
Eu1705     O2333   2.353       .  S
Eu1705     O1720   2.354       .  S
Eu1706     O1720   2.354       .  S
Eu1706     O1710   2.353       .  S
Eu1707     O1709   2.353       .  S
Eu1707     O1722   2.354       .  S
Eu1708     O2319   2.458       .  S
Eu1708     O2333   2.353       .  S
Eu1708     O1720   2.354       .  S
Eu1708     O2346   2.354       .  S
Eu1708     O1710   2.353       .  S
O1709     Eu2329   2.353       .  S
O1709     Eu2332   2.353       .  S
C1711      C2472   1.435       .  S
C1712      C2465   1.435       .  S
C1713      C1805   1.435       .  S
C1714      C1801   1.435       .  S
C1715      C1793   1.435       .  S
C1716      C1797   1.435       .  S
C1717      C1785   1.435       .  S
C1718      C1789   1.435       .  S
H1719      O1720   0.965       .  S
H1721      O1722   0.965       .  S
O1722     Eu2328   2.354       .  S
O1722     Eu2332   2.354       .  S
O1723      C1734   1.290       .  A
O1723     Eu1759   2.458       .  S
O1724      C1735   1.290       .  A
O1724     Eu1758   2.458   1_556  S
O1725      C1736   1.290       .  A
O1726      C1737   1.290       .  A
O1726     Eu1731   2.458   1_556  S
O1727      C1737   1.290       .  A
O1727     Eu1761   2.458       .  S
O1728      C1736   1.290       .  A
O1728     Eu1760   2.458       .  S
O1729      C1735   1.290       .  A
O1729     Eu1731   2.458   1_556  S
O1730      C1734   1.290       .  A
O1730     Eu1731   2.458       .  S
Eu1731     O1741   2.354   1_554  S
Eu1731     O1732   2.353   1_554  S
O1732     Eu1761   2.353       .  S
O1732     Eu1758   2.353   1_556  S
O1733     Eu1760   2.353       .  S
C1736      C1816   1.435       .  S
C1737      C1817   1.435       .  S
H1738      O1739   0.965       .  S
O1739     Eu1760   2.354       .  S
H1740      O1741   0.965       .  S
O1741     Eu1759   2.354   1_556  S
O1741     Eu1761   2.354       .  S
O1742      C1765   1.290       .  A
O1742     Eu1758   2.458       .  S
O1743      C1766   1.290       .  A
O1743     Eu1759   2.458   1_556  S
O1744      C1767   1.290       .  A
O1744     Eu1760   2.458       .  S
O1745      C1768   1.290       .  A
O1745     Eu1761   2.458       .  S
O1746      C1769   1.290       .  A
O1746     Eu1761   2.458       .  S
O1747      C1770   1.290       .  A
O1747     Eu1760   2.458       .  S
O1748      C1771   1.290       .  A
O1749      C1772   1.290       .  A
O1749     Eu1762   2.458   1_556  S
O1750      C1771   1.290       .  A
O1750     Eu1760   2.458       .  S
O1751      C1772   1.290       .  A
O1751     Eu1761   2.458       .  S
O1752      C1767   1.290       .  A
O1753      C1770   1.290       .  A
O1754      C1769   1.290       .  A
O1754     Eu1759   2.458   1_556  S
O1755      C1768   1.290       .  A
O1755     Eu1758   2.458   1_556  S
O1756      C1765   1.290       .  A
O1756     Eu1762   2.458       .  S
O1757      C1766   1.290       .  A
O1757     Eu1762   2.458   1_556  S
Eu1758     O1776   2.354   1_554  S
Eu1759     O1763   2.353   1_554  S
Eu1760     O1774   2.354       .  S
Eu1760     O1764   2.353       .  S
Eu1761     O1763   2.353       .  S
Eu1761     O1776   2.354       .  S
Eu1762     O1763   2.353   1_554  S
Eu1762     O1776   2.354   1_554  S
C1767      C1781   1.435       .  S
C1768      C1788   1.435       .  S
C1769      C1792   1.435       .  S
C1770      C1780   1.435       .  S
C1771      C1812   1.435       .  S
C1772      C1824   1.435       .  S
H1773      O1774   0.965       .  S
H1775      O1776   0.965       .  S
C1777      C1778   1.205       .  T
C1778      C1779   1.412       .  S
C1779      C1780   1.205       .  T
C1781      C1782   1.205       .  T
C1782      C1783   1.412       .  S
C1783      C1784   1.205       .  T
C1785      C1786   1.205       .  T
C1786      C1787   1.412       .  S
C1787      C1788   1.205       .  T
C1789      C1790   1.205       .  T
C1790      C1791   1.412       .  S
C1791      C1792   1.205       .  T
C1793      C1794   1.205       .  T
C1794      C1795   1.412       .  S
C1795      C1796   1.205       .  T
C1797      C1798   1.205       .  T
C1798      C1799   1.412       .  S
C1799      C1800   1.205       .  T
C1801      C1802   1.205       .  T
C1802      C1803   1.412       .  S
C1803      C1804   1.205       .  T
C1805      C1806   1.205       .  T
C1806      C1807   1.412       .  S
C1807      C1808   1.205       .  T
C1809      C1810   1.205       .  T
C1810      C1811   1.412       .  S
C1811      C1812   1.205       .  T
C1813      C1814   1.205       .  T
C1814      C1815   1.412       .  S
C1815      C1816   1.205       .  T
C1817      C1818   1.205       .  T
C1818      C1819   1.412       .  S
C1819      C1820   1.205       .  T
C1821      C1822   1.205       .  T
C1822      C1823   1.412       .  S
C1823      C1824   1.205       .  T
C1825      C1826   1.205       .  T
C1826      C1827   1.412       .  S
C1827      C1828   1.205       .  T
C1829      C1830   1.205       .  T
C1830      C1831   1.412       .  S
C1831      C1832   1.205       .  T
C1833      C1834   1.205       .  T
C1834      C1835   1.412       .  S
C1835      C1836   1.205       .  T
C1837      C1838   1.205       .  T
C1838      C1839   1.412       .  S
C1839      C1840   1.205       .  T
C1841      C2336   1.435       .  S
C1841      C1842   1.205       .  T
C1842      C1843   1.412       .  S
C1843      C1844   1.205       .  T
C1845      C2470   1.205   1_565  T
C1846      C2469   1.205       .  T
C1846      C1847   1.412       .  S
C1847      C2472   1.205       .  T
C1848      C2335   1.435       .  S
C1848      C2471   1.205   1_565  T
C1849      C2305   1.435       .  S
C1849      C1850   1.205       .  T
C1850      C1851   1.412       .  S
C1851      C1852   1.205       .  T
C1853      C2478   1.205   1_565  T
C1854      C2477   1.205       .  T
C1854      C1855   1.412       .  S
C1855      C2480   1.205       .  T
C1856      C2304   1.435       .  S
C1856      C2479   1.205   1_565  T
C1858      C1859   1.412       .  S
C1861      C1862   1.205       .  T
C1867      C1868   1.205       .  T
C1870      C1871   1.412       .  S
O1873      C1884   1.290       .  A
O1873     Eu1909   2.458       .  S
O1874      C1885   1.290       .  A
O1874     Eu1908   2.458       .  S
O1875      C1886   1.290       .  A
O1875     Eu1881   2.458       .  S
O1876      C1887   1.290       .  A
O1877      C1887   1.290       .  A
O1877     Eu1911   2.458   1_556  S
O1878      C1886   1.290       .  A
O1878     Eu1910   2.458       .  S
O1879      C1885   1.290       .  A
O1879     Eu2193   2.458       .  S
O1880      C1884   1.290       .  A
O1880     Eu1881   2.458       .  S
Eu1881     O2191   2.458   1_554  S
Eu1881     O1883   2.353       .  S
Eu1881     O2201   2.354   1_554  S
O1882     Eu2223   2.353       .  S
O1883     Eu1909   2.353       .  S
O1883     Eu1910   2.353       .  S
C1884      C2184   1.435       .  S
C1885      C2169   1.435       .  S
C1886      C2152   1.435       .  S
C1887      C2144   1.435       .  S
H1888      O1889   0.965       .  S
O1889     Eu2193   2.354       .  S
O1889     Eu2222   2.354       .  S
O1889     Eu1908   2.354       .  S
H1890      O1891   0.965       .  S
O1891     Eu1911   2.354       .  S
O1892      C1915   1.290       .  A
O1893      C1916   1.290       .  A
O1894      C1917   1.290       .  A
O1894     Eu2222   2.458       .  S
O1895      C1918   1.290       .  A
O1895     Eu2223   2.458       .  S
O1896      C1919   1.290       .  A
O1896     Eu1911   2.458       .  S
O1897      C1920   1.290       .  A
O1897     Eu1910   2.458       .  S
O1898      C1921   1.290       .  A
O1898     Eu1912   2.458   1_556  S
O1899      C1922   1.290       .  A
O1900      C1921   1.290       .  A
O1901      C1922   1.290       .  A
O1902      C1917   1.290       .  A
O1902     Eu1908   2.458       .  S
O1903      C1920   1.290       .  A
O1903     Eu1909   2.458       .  S
O1904      C1919   1.290       .  A
O1905      C1918   1.290       .  A
O1906      C1915   1.290       .  A
O1906     Eu2224   2.458       .  S
O1907      C1916   1.290       .  A
O1907     Eu1912   2.458       .  S
Eu1910     O2206   2.458   1_554  S
Eu1910     O2201   2.354   1_554  S
Eu1911     O2207   2.458   1_554  S
Eu1911     O2194   2.353   1_554  S
Eu1912     O2218   2.458   1_554  S
Eu1912     O1924   2.354       .  S
Eu1912     O2226   2.353   1_554  S
O1914     Eu2224   2.353       .  S
C1915      C2176   1.435       .  S
C1916      C2177   1.435       .  S
C1917      C2157   1.435       .  S
C1918      C2156   1.435       .  S
C1919      C2165   1.435       .  S
C1920      C2164   1.435       .  S
C1921      C2148   1.435       .  S
C1922      C2140   1.435       .  S
H1923      O1924   0.965       .  S
H1925      O1926   0.965       .  S
O1927      C1938   1.290       .  A
O1927     Eu1963   2.458       .  S
O1928      C1939   1.290       .  A
O1928     Eu1962   2.458       .  S
O1929      C1940   1.290       .  A
O1929     Eu1935   2.458       .  S
O1930      C1941   1.290       .  A
O1931      C1941   1.290       .  A
O1931     Eu1965   2.458       .  S
O1932      C1940   1.290       .  A
O1932     Eu1964   2.458       .  S
O1933      C1939   1.290       .  A
O1933     Eu1935   2.458       .  S
O1934      C1938   1.290       .  A
O1934     Eu1935   2.458       .  S
Eu1935     O1937   2.353       .  S
Eu1935     O1943   2.354       .  S
O1936     Eu1965   2.353       .  S
O1937     Eu1963   2.353       .  S
O1937     Eu1964   2.353       .  S
C1938      C2181   1.435       .  S
C1939      C2172   1.435       .  S
C1940      C2116   1.435       .  S
C1941      C2108   1.435       .  S
H1942      O1943   0.965       .  S
O1943     Eu1964   2.354       .  S
O1943     Eu1962   2.354       .  S
H1944      O1945   0.965       .  S
O1945     Eu1965   2.354       .  S
O1946      C1969   1.290       .  A
O1946     Eu1962   2.458       .  S
O1947      C1970   1.290       .  A
O1947     Eu1963   2.458       .  S
O1948      C1971   1.290       .  A
O1948     Eu1964   2.458       .  S
O1949      C1972   1.290       .  A
O1949     Eu1965   2.458       .  S
O1950      C1973   1.290       .  A
O1950     Eu1965   2.458       .  S
O1951      C1974   1.290       .  A
O1951     Eu1964   2.458       .  S
O1952      C1975   1.290       .  A
O1952     Eu1966   2.458       .  S
O1953      C1976   1.290       .  A
O1954      C1975   1.290       .  A
O1954     Eu1964   2.458       .  S
O1955      C1976   1.290       .  A
O1955     Eu1965   2.458       .  S
O1956      C1971   1.290       .  A
O1956     Eu1962   2.458       .  S
O1957      C1974   1.290       .  A
O1957     Eu1963   2.458       .  S
O1958      C1973   1.290       .  A
O1959      C1972   1.290       .  A
O1960      C1969   1.290       .  A
O1960     Eu1966   2.458       .  S
O1961      C1970   1.290       .  A
O1961     Eu1966   2.458       .  S
Eu1962     O1968   2.353       .  S
Eu1963     O1978   2.354       .  S
Eu1964     O1978   2.354       .  S
Eu1964     O1968   2.353       .  S
Eu1965     O1967   2.353       .  S
Eu1965     O1980   2.354       .  S
Eu1966     O1978   2.354       .  S
Eu1966     O1968   2.353       .  S
C1969      C2173   1.435       .  S
C1970      C2180   1.435       .  S
C1971      C2132   1.435       .  S
C1972      C2133   1.435       .  S
C1973      C2121   1.435       .  S
C1974      C2125   1.435       .  S
C1975      C2120   1.435       .  S
C1976      C2112   1.435       .  S
H1977      O1978   0.965       .  S
H1979      O1980   0.965       .  S
O1981      C1992   1.290       .  A
O1981     Eu2017   2.458   1_565  S
O1982      C1993   1.290       .  A
O1982     Eu2016   2.458       .  S
O1983      C1994   1.290       .  A
O1983     Eu1989   2.458   1_565  S
O1984      C1995   1.290       .  A
O1985      C1995   1.290       .  A
O1985     Eu2019   2.458       .  S
O1986      C1994   1.290       .  A
O1986     Eu2018   2.458       .  S
O1987      C1993   1.290       .  A
O1987     Eu1989   2.458       .  S
O1988      C1992   1.290       .  A
O1988     Eu1989   2.458   1_565  S
Eu1989     O1991   2.353   1_545  S
Eu1989     O1997   2.354   1_545  S
O1990     Eu2019   2.353       .  S
O1991     Eu2017   2.353   1_565  S
O1991     Eu2018   2.353       .  S
C1994      C2096   1.435       .  S
C1995      C2089   1.435       .  S
H1996      O1997   0.965       .  S
O1997     Eu2018   2.354       .  S
O1997     Eu2016   2.354   1_565  S
H1998      O1999   0.965       .  S
O1999     Eu2019   2.354       .  S
O2000      C2023   1.290       .  A
O2000     Eu2016   2.458   1_565  S
O2001      C2024   1.290       .  A
O2001     Eu2017   2.458       .  S
O2002      C2025   1.290       .  A
O2002     Eu2018   2.458       .  S
O2003      C2026   1.290       .  A
O2003     Eu2019   2.458       .  S
O2004      C2027   1.290       .  A
O2004     Eu2019   2.458       .  S
O2005      C2028   1.290       .  A
O2005     Eu2018   2.458       .  S
O2006      C2029   1.290       .  A
O2006     Eu2020   2.458   1_565  S
O2007      C2030   1.290       .  A
O2008      C2029   1.290       .  A
O2008     Eu2018   2.458       .  S
O2009      C2030   1.290       .  A
O2009     Eu2019   2.458       .  S
O2010      C2025   1.290       .  A
O2010     Eu2016   2.458   1_565  S
O2011      C2028   1.290       .  A
O2011     Eu2017   2.458   1_565  S
O2012      C2027   1.290       .  A
O2013      C2026   1.290       .  A
O2014      C2023   1.290       .  A
O2014     Eu2020   2.458   1_565  S
O2015      C2024   1.290       .  A
O2015     Eu2020   2.458       .  S
Eu2016     O2022   2.353   1_545  S
Eu2017     O2032   2.354   1_545  S
Eu2018     O2032   2.354       .  S
Eu2018     O2022   2.353       .  S
Eu2019     O2021   2.353       .  S
Eu2019     O2034   2.354       .  S
Eu2020     O2032   2.354   1_545  S
Eu2020     O2022   2.353   1_545  S
C2025      C2117   1.435       .  S
C2026      C2113   1.435       .  S
C2027      C2105   1.435       .  S
C2028      C2109   1.435       .  S
C2029      C2097   1.435       .  S
C2030      C2101   1.435       .  S
H2031      O2032   0.965       .  S
H2033      O2034   0.965       .  S
O2035      C2046   1.290       .  A
O2035     Eu2071   2.458       .  S
O2036      C2047   1.290       .  A
O2036     Eu2070   2.458       .  S
O2037      C2048   1.290       .  A
O2037     Eu2355   2.458       .  S
O2038      C2049   1.290       .  A
O2038     Eu2043   2.458       .  S
O2039      C2049   1.290       .  A
O2039     Eu2073   2.458       .  S
O2040      C2048   1.290       .  A
O2040     Eu2072   2.458       .  S
O2041      C2047   1.290       .  A
O2041     Eu2043   2.458       .  S
O2042      C2046   1.290       .  A
O2042     Eu2043   2.458       .  S
Eu2043     O2349   2.458       .  S
Eu2043     O2053   2.354       .  S
Eu2043     O2357   2.353       .  S
Eu2043     O2044   2.353       .  S
Eu2043     O2363   2.354       .  S
O2044     Eu2073   2.353       .  S
O2044     Eu2070   2.353       .  S
O2045     Eu2355   2.353       .  S
O2045     Eu2383   2.353       .  S
O2045     Eu2072   2.353       .  S
C2046      C2461   1.435       .  S
C2047      C2457   1.435       .  S
C2048      C2128   1.435       .  S
C2049      C2129   1.435       .  S
H2050      O2051   0.965       .  S
O2051     Eu2355   2.354       .  S
O2051     Eu2072   2.354       .  S
O2051     Eu2382   2.354       .  S
H2052      O2053   0.965       .  S
O2053     Eu2071   2.354       .  S
O2053     Eu2073   2.354       .  S
O2054      C2077   1.290       .  A
O2054     Eu2070   2.458       .  S
O2055      C2078   1.290       .  A
O2055     Eu2071   2.458       .  S
O2056      C2079   1.290       .  A
O2056     Eu2072   2.458       .  S
O2057      C2080   1.290       .  A
O2057     Eu2073   2.458       .  S
O2058      C2081   1.290       .  A
O2058     Eu2073   2.458       .  S
O2059      C2082   1.290       .  A
O2059     Eu2072   2.458       .  S
O2060      C2083   1.290       .  A
O2060     Eu2386   2.458       .  S
O2061      C2084   1.290       .  A
O2061     Eu2074   2.458       .  S
O2062      C2083   1.290       .  A
O2062     Eu2072   2.458       .  S
O2063      C2084   1.290       .  A
O2063     Eu2073   2.458       .  S
O2064      C2079   1.290       .  A
O2064     Eu2382   2.458       .  S
O2065      C2082   1.290       .  A
O2065     Eu2383   2.458       .  S
O2066      C2081   1.290       .  A
O2066     Eu2071   2.458       .  S
O2067      C2080   1.290       .  A
O2067     Eu2070   2.458       .  S
O2068      C2077   1.290       .  A
O2068     Eu2074   2.458       .  S
O2069      C2078   1.290       .  A
O2069     Eu2074   2.458       .  S
Eu2070     O2376   2.458       .  S
Eu2070     O2363   2.354       .  S
Eu2070     O2088   2.354       .  S
Eu2070     O2388   2.353       .  S
Eu2071     O2377   2.458       .  S
Eu2071     O2357   2.353       .  S
Eu2071     O2075   2.353       .  S
Eu2071     O2398   2.354       .  S
Eu2072     O2086   2.354       .  S
Eu2072     O2076   2.353       .  S
Eu2073     O2075   2.353       .  S
Eu2073     O2088   2.354       .  S
Eu2074     O2372   2.458       .  S
Eu2074     O2075   2.353       .  S
Eu2074     O2398   2.354       .  S
Eu2074     O2088   2.354       .  S
Eu2074     O2388   2.353       .  S
O2076     Eu2382   2.353       .  S
O2076     Eu2386   2.353       .  S
C2077      C2449   1.435       .  S
C2078      C2453   1.435       .  S
C2079      C2093   1.435       .  S
C2080      C2100   1.435       .  S
C2081      C2104   1.435       .  S
C2082      C2092   1.435       .  S
C2083      C2124   1.435       .  S
C2084      C2136   1.435       .  S
H2085      O2086   0.965       .  S
O2086     Eu2383   2.354       .  S
O2086     Eu2386   2.354       .  S
H2087      O2088   0.965       .  S
C2089      C2090   1.205       .  T
C2090      C2091   1.412       .  S
C2091      C2092   1.205       .  T
C2093      C2094   1.205       .  T
C2094      C2095   1.412       .  S
C2095      C2096   1.205       .  T
C2097      C2098   1.205       .  T
C2098      C2099   1.412       .  S
C2099      C2100   1.205       .  T
C2101      C2102   1.205       .  T
C2102      C2103   1.412       .  S
C2103      C2104   1.205       .  T
C2105      C2106   1.205       .  T
C2106      C2107   1.412       .  S
C2107      C2108   1.205       .  T
C2109      C2110   1.205       .  T
C2110      C2111   1.412       .  S
C2111      C2112   1.205       .  T
C2113      C2114   1.205       .  T
C2114      C2115   1.412       .  S
C2115      C2116   1.205       .  T
C2117      C2118   1.205       .  T
C2118      C2119   1.412       .  S
C2119      C2120   1.205       .  T
C2121      C2122   1.205       .  T
C2122      C2123   1.412       .  S
C2123      C2124   1.205       .  T
C2125      C2126   1.205       .  T
C2126      C2127   1.412       .  S
C2127      C2128   1.205       .  T
C2129      C2130   1.205       .  T
C2130      C2131   1.412       .  S
C2131      C2132   1.205       .  T
C2133      C2134   1.205       .  T
C2134      C2135   1.412       .  S
C2135      C2136   1.205       .  T
C2137      C2389   1.435       .  S
C2137      C2138   1.205       .  T
C2138      C2139   1.412       .  S
C2139      C2140   1.205       .  T
C2141      C2390   1.435       .  S
C2141      C2142   1.205       .  T
C2142      C2143   1.412       .  S
C2143      C2144   1.205       .  T
C2145      C2359   1.435       .  S
C2145      C2146   1.205       .  T
C2146      C2147   1.412       .  S
C2147      C2148   1.205       .  T
C2149      C2358   1.435       .  S
C2149      C2150   1.205       .  T
C2150      C2151   1.412       .  S
C2151      C2152   1.205       .  T
C2153      C2154   1.205       .  T
C2154      C2155   1.412       .  S
C2155      C2156   1.205       .  T
C2158      C2159   1.412       .  S
C2161      C2162   1.205       .  T
C2162      C2163   1.412       .  S
C2163      C2164   1.205       .  T
C2166      C2167   1.411       .  S
C2170      C2171   1.412       .  S
C2173      C2174   1.205       .  T
C2179      C2180   1.205       .  T
C2182      C2183   1.412       .  S
O2185      C2196   1.290       .  A
O2185     Eu2221   2.458       .  S
O2186      C2197   1.290       .  A
O2186     Eu2220   2.458       .  S
O2187      C2198   1.290       .  A
O2187     Eu2193   2.458       .  S
O2188      C2199   1.290       .  A
O2189      C2199   1.290       .  A
O2189     Eu2223   2.458       .  S
O2190      C2198   1.290       .  A
O2190     Eu2222   2.458       .  S
O2191      C2197   1.290       .  A
O2192      C2196   1.290       .  A
O2192     Eu2193   2.458       .  S
Eu2193     O2195   2.353       .  S
O2195     Eu2221   2.353       .  S
O2195     Eu2222   2.353       .  S
C2196      C2496   1.435       .  S
C2197      C2481   1.435       .  S
C2198      C2464   1.435       .  S
C2199      C2456   1.435       .  S
H2200      O2201   0.965       .  S
O2201     Eu2220   2.354       .  S
H2202      O2203   0.965       .  S
O2203     Eu2223   2.354       .  S
O2204      C2227   1.290       .  A
O2205      C2228   1.290       .  A
O2206      C2229   1.290       .  A
O2207      C2230   1.290       .  A
O2208      C2231   1.290       .  A
O2208     Eu2223   2.458       .  S
O2209      C2232   1.290       .  A
O2209     Eu2222   2.458       .  S
O2210      C2233   1.290       .  A
O2210     Eu2224   2.458       .  S
O2211      C2234   1.290       .  A
O2212      C2233   1.290       .  A
O2213      C2234   1.290       .  A
O2214      C2229   1.290       .  A
O2214     Eu2220   2.458       .  S
O2215      C2232   1.290       .  A
O2215     Eu2221   2.458       .  S
O2216      C2231   1.290       .  A
O2217      C2230   1.290       .  A
O2218      C2227   1.290       .  A
O2219      C2228   1.290       .  A
O2219     Eu2224   2.458       .  S
Eu2224     O2236   2.354       .  S
C2227      C2488   1.435       .  S
C2228      C2489   1.435       .  S
C2229      C2469   1.435       .  S
C2230      C2468   1.435       .  S
C2231      C2477   1.435       .  S
C2232      C2476   1.435       .  S
C2233      C2460   1.435       .  S
C2234      C2452   1.435       .  S
H2235      O2236   0.965       .  S
H2237      O2238   0.965       .  S
O2239      C2250   1.290       .  A
O2239     Eu2275   2.458       .  S
O2240      C2251   1.290       .  A
O2240     Eu2274   2.458       .  S
O2241      C2252   1.290       .  A
O2241     Eu2247   2.458       .  S
O2242      C2253   1.290       .  A
O2243      C2253   1.290       .  A
O2243     Eu2277   2.458       .  S
O2244      C2252   1.290       .  A
O2244     Eu2276   2.458       .  S
O2245      C2251   1.290       .  A
O2245     Eu2247   2.458       .  S
O2246      C2250   1.290       .  A
O2246     Eu2247   2.458       .  S
Eu2247     O2249   2.353       .  S
Eu2247     O2255   2.354       .  S
O2248     Eu2277   2.353       .  S
O2249     Eu2275   2.353       .  S
O2249     Eu2276   2.353       .  S
C2250      C2493   1.435       .  S
C2251      C2484   1.435       .  S
C2252      C2428   1.435       .  S
C2253      C2420   1.435       .  S
H2254      O2255   0.965       .  S
O2255     Eu2276   2.354       .  S
O2255     Eu2274   2.354       .  S
H2256      O2257   0.965       .  S
O2257     Eu2277   2.354       .  S
O2258      C2281   1.290       .  A
O2258     Eu2274   2.458       .  S
O2259      C2282   1.290       .  A
O2259     Eu2275   2.458       .  S
O2260      C2283   1.290       .  A
O2260     Eu2276   2.458       .  S
O2261      C2284   1.290       .  A
O2261     Eu2277   2.458       .  S
O2262      C2285   1.290       .  A
O2262     Eu2277   2.458       .  S
O2263      C2286   1.290       .  A
O2263     Eu2276   2.458       .  S
O2264      C2287   1.290       .  A
O2264     Eu2278   2.458       .  S
O2265      C2288   1.290       .  A
O2266      C2287   1.290       .  A
O2266     Eu2276   2.458       .  S
O2267      C2288   1.290       .  A
O2267     Eu2277   2.458       .  S
O2268      C2283   1.290       .  A
O2268     Eu2274   2.458       .  S
O2269      C2286   1.290       .  A
O2269     Eu2275   2.458       .  S
O2270      C2285   1.290       .  A
O2271      C2284   1.290       .  A
O2272      C2281   1.290       .  A
O2272     Eu2278   2.458       .  S
O2273      C2282   1.290       .  A
O2273     Eu2278   2.458       .  S
Eu2274     O2280   2.353       .  S
Eu2275     O2290   2.354       .  S
Eu2276     O2290   2.354       .  S
Eu2276     O2280   2.353       .  S
Eu2277     O2279   2.353       .  S
Eu2277     O2292   2.354       .  S
Eu2278     O2290   2.354       .  S
Eu2278     O2280   2.353       .  S
C2281      C2485   1.435       .  S
C2282      C2492   1.435       .  S
C2283      C2444   1.435       .  S
C2284      C2445   1.435       .  S
C2285      C2433   1.435       .  S
C2286      C2437   1.435       .  S
C2287      C2432   1.435       .  S
C2288      C2424   1.435       .  S
H2289      O2290   0.965       .  S
H2291      O2292   0.965       .  S
O2293      C2304   1.290       .  A
O2293     Eu2329   2.458   1_565  S
O2294      C2305   1.290       .  A
O2294     Eu2328   2.458       .  S
O2295      C2306   1.290       .  A
O2295     Eu2301   2.458   1_565  S
O2296      C2307   1.290       .  A
O2297      C2307   1.290       .  A
O2297     Eu2331   2.458       .  S
O2298      C2306   1.290       .  A
O2298     Eu2330   2.458       .  S
O2299      C2305   1.290       .  A
O2299     Eu2301   2.458       .  S
O2300      C2304   1.290       .  A
O2300     Eu2301   2.458   1_565  S
Eu2301     O2303   2.353   1_545  S
Eu2301     O2309   2.354   1_545  S
O2302     Eu2331   2.353       .  S
O2303     Eu2329   2.353   1_565  S
O2303     Eu2330   2.353       .  S
C2306      C2408   1.435       .  S
C2307      C2401   1.435       .  S
H2308      O2309   0.965       .  S
O2309     Eu2330   2.354       .  S
O2309     Eu2328   2.354   1_565  S
H2310      O2311   0.965       .  S
O2311     Eu2331   2.354       .  S
O2312      C2335   1.290       .  A
O2312     Eu2328   2.458   1_565  S
O2313      C2336   1.290       .  A
O2313     Eu2329   2.458       .  S
O2314      C2337   1.290       .  A
O2314     Eu2330   2.458       .  S
O2315      C2338   1.290       .  A
O2315     Eu2331   2.458       .  S
O2316      C2339   1.290       .  A
O2316     Eu2331   2.458       .  S
O2317      C2340   1.290       .  A
O2317     Eu2330   2.458       .  S
O2318      C2341   1.290       .  A
O2318     Eu2332   2.458   1_565  S
O2319      C2342   1.290       .  A
O2320      C2341   1.290       .  A
O2320     Eu2330   2.458       .  S
O2321      C2342   1.290       .  A
O2321     Eu2331   2.458       .  S
O2322      C2337   1.290       .  A
O2322     Eu2328   2.458   1_565  S
O2323      C2340   1.290       .  A
O2323     Eu2329   2.458   1_565  S
O2324      C2339   1.290       .  A
O2325      C2338   1.290       .  A
O2326      C2335   1.290       .  A
O2326     Eu2332   2.458   1_565  S
O2327      C2336   1.290       .  A
O2327     Eu2332   2.458       .  S
Eu2328     O2334   2.353   1_545  S
Eu2329     O2344   2.354   1_545  S
Eu2330     O2344   2.354       .  S
Eu2330     O2334   2.353       .  S
Eu2331     O2333   2.353       .  S
Eu2331     O2346   2.354       .  S
Eu2332     O2344   2.354   1_545  S
Eu2332     O2334   2.353   1_545  S
C2337      C2429   1.435       .  S
C2338      C2425   1.435       .  S
C2339      C2417   1.435       .  S
C2340      C2421   1.435       .  S
C2341      C2409   1.435       .  S
C2342      C2413   1.435       .  S
H2343      O2344   0.965       .  S
H2345      O2346   0.965       .  S
O2347      C2358   1.290       .  A
O2347     Eu2383   2.458       .  S
O2348      C2359   1.290       .  A
O2348     Eu2382   2.458   1_556  S
O2349      C2360   1.290       .  A
O2350      C2361   1.290       .  A
O2350     Eu2355   2.458   1_556  S
O2351      C2361   1.290       .  A
O2351     Eu2385   2.458       .  S
O2352      C2360   1.290       .  A
O2352     Eu2384   2.458       .  S
O2353      C2359   1.290       .  A
O2353     Eu2355   2.458   1_556  S
O2354      C2358   1.290       .  A
O2354     Eu2355   2.458       .  S
Eu2355     O2365   2.354   1_554  S
Eu2355     O2356   2.353   1_554  S
O2356     Eu2385   2.353       .  S
O2356     Eu2382   2.353   1_556  S
O2357     Eu2384   2.353       .  S
C2360      C2440   1.435       .  S
C2361      C2441   1.435       .  S
H2362      O2363   0.965       .  S
O2363     Eu2384   2.354       .  S
H2364      O2365   0.965       .  S
O2365     Eu2383   2.354   1_556  S
O2365     Eu2385   2.354       .  S
O2366      C2389   1.290       .  A
O2366     Eu2382   2.458       .  S
O2367      C2390   1.290       .  A
O2367     Eu2383   2.458   1_556  S
O2368      C2391   1.290       .  A
O2368     Eu2384   2.458       .  S
O2369      C2392   1.290       .  A
O2369     Eu2385   2.458       .  S
O2370      C2393   1.290       .  A
O2370     Eu2385   2.458       .  S
O2371      C2394   1.290       .  A
O2371     Eu2384   2.458       .  S
O2372      C2395   1.290       .  A
O2373      C2396   1.290       .  A
O2373     Eu2386   2.458   1_556  S
O2374      C2395   1.290       .  A
O2374     Eu2384   2.458       .  S
O2375      C2396   1.290       .  A
O2375     Eu2385   2.458       .  S
O2376      C2391   1.290       .  A
O2377      C2394   1.290       .  A
O2378      C2393   1.290       .  A
O2378     Eu2383   2.458   1_556  S
O2379      C2392   1.290       .  A
O2379     Eu2382   2.458   1_556  S
O2380      C2389   1.290       .  A
O2380     Eu2386   2.458       .  S
O2381      C2390   1.290       .  A
O2381     Eu2386   2.458   1_556  S
Eu2382     O2400   2.354   1_554  S
Eu2383     O2387   2.353   1_554  S
Eu2384     O2398   2.354       .  S
Eu2384     O2388   2.353       .  S
Eu2385     O2387   2.353       .  S
Eu2385     O2400   2.354       .  S
Eu2386     O2387   2.353   1_554  S
Eu2386     O2400   2.354   1_554  S
C2391      C2405   1.435       .  S
C2392      C2412   1.435       .  S
C2393      C2416   1.435       .  S
C2394      C2404   1.435       .  S
C2395      C2436   1.435       .  S
C2396      C2448   1.435       .  S
H2397      O2398   0.965       .  S
H2399      O2400   0.965       .  S
C2401      C2402   1.205       .  T
C2402      C2403   1.412       .  S
C2403      C2404   1.205       .  T
C2405      C2406   1.205       .  T
C2406      C2407   1.412       .  S
C2407      C2408   1.205       .  T
C2409      C2410   1.205       .  T
C2410      C2411   1.412       .  S
C2411      C2412   1.205       .  T
C2413      C2414   1.205       .  T
C2414      C2415   1.412       .  S
C2415      C2416   1.205       .  T
C2417      C2418   1.205       .  T
C2418      C2419   1.412       .  S
C2419      C2420   1.205       .  T
C2421      C2422   1.205       .  T
C2422      C2423   1.412       .  S
C2423      C2424   1.205       .  T
C2425      C2426   1.205       .  T
C2426      C2427   1.412       .  S
C2427      C2428   1.205       .  T
C2429      C2430   1.205       .  T
C2430      C2431   1.412       .  S
C2431      C2432   1.205       .  T
C2433      C2434   1.205       .  T
C2434      C2435   1.412       .  S
C2435      C2436   1.205       .  T
C2437      C2438   1.205       .  T
C2438      C2439   1.412       .  S
C2439      C2440   1.205       .  T
C2441      C2442   1.205       .  T
C2442      C2443   1.412       .  S
C2443      C2444   1.205       .  T
C2445      C2446   1.205       .  T
C2446      C2447   1.412       .  S
C2447      C2448   1.205       .  T
C2449      C2450   1.205       .  T
C2450      C2451   1.412       .  S
C2451      C2452   1.205       .  T
C2453      C2454   1.205       .  T
C2454      C2455   1.412       .  S
C2455      C2456   1.205       .  T
C2457      C2458   1.205       .  T
C2458      C2459   1.412       .  S
C2459      C2460   1.205       .  T
C2461      C2462   1.205       .  T
C2462      C2463   1.412       .  S
C2463      C2464   1.205       .  T
C2465      C2466   1.205       .  T
C2466      C2467   1.412       .  S
C2467      C2468   1.205       .  T
C2470      C2471   1.412       .  S
C2473      C2474   1.205       .  T
C2474      C2475   1.412       .  S
C2475      C2476   1.205       .  T
C2478      C2479   1.411       .  S
C2482      C2483   1.412       .  S
C2485      C2486   1.205       .  T
C2491      C2492   1.205       .  T
C2494      C2495   1.412       .  S
