geometry optimzed in LAMMPS
_audit_creation_date              2020-11-30 
_audit_creation_method            'lammps2cif' 
_symmetry_space_group_name_H-M    'P1' 
_symmetry_Int_Tables_number       1 
_symmetry_cell_setting            triclinic 
loop_ 
_symmetry_equiv_pos_as_xyz 
  x,y,z 
_cell_length_a                    42.1779167 
_cell_length_b                    37.02413089365708 
_cell_length_c                    37.24397034204932 
_cell_angle_alpha                 85.97905216116217 
_cell_angle_beta                  88.44054236727888 
_cell_angle_gamma                 121.97432650964204 
loop_ 
_atom_site_label 
_atom_site_type_symbol 
_atom_site_fract_x 
_atom_site_fract_y 
_atom_site_fract_z 
_atom_site_charge 
Zr1        Zr  0.27604366  0.12533442  0.80278209     2.17500
O2          O  0.24412764  0.11098131  0.74704225    -0.52000
O3          O  0.22053943  0.09775003  0.84332976    -0.75200
O4          O  0.24813531  0.05083754  0.79007782    -0.82000
O5          O  0.29665796  0.23721640  0.79152674    -0.83800
O6          O  0.28295402  0.02708875  0.81575453    -0.79400
O7          O  0.25125092  0.16901086  0.78339247    -0.91000
O8          O  0.24033307  0.11686639  0.89870490    -0.77000
O9          O  0.28725389  0.09462307  0.85560585    -0.86500
O10         O  0.29437422  0.17572659  0.84649054    -0.86200
O11         O  0.32620446  0.11641932  0.78399542    -0.72900
O12         O  0.33044722  0.19044402  0.77536082    -0.85000
Zr13       Zr  0.41186266  0.20130973  0.85599886     2.26400
Zr14       Zr  0.33796872  0.08704135  0.83750395     2.06300
Zr15       Zr  0.34899164  0.23961680  0.82003338     2.10000
Zr16       Zr  0.30650626  0.14556558  0.89867687     1.78800
O17         O  0.38241212  0.29496284  0.76989571    -0.93900
O18         O  0.27809906  0.08025367  0.93981321    -0.41700
O19         O  0.36143057  0.21039688  0.87348065    -0.78300
O20         O  0.35690451  0.13607655  0.88279697    -0.97000
O21         O  0.39329569  0.15153053  0.81188694    -0.90300
O22         O  0.40039058  0.23241443  0.80327275    -0.93100
C23         C  0.21471366  0.10082823  0.87663933     1.00600
C24         C  0.26435835  0.20930015  0.78158226     1.13600
C25         C  0.25535900  0.02167604  0.79798344     1.04300
O26         O  0.31244241  0.03339977  0.88946985    -0.95300
O27         O  0.38910069  0.08435101  0.86165469    -0.91000
O28         O  0.43112048  0.15096907  0.87712154    -0.84200
C29         C  0.41940237  0.11111454  0.87522881     1.11000
O30         O  0.35436116  0.16193101  0.70197683    -0.97300
Zr31       Zr  0.38139681  0.18197451  0.75968524     1.88900
O32         O  0.46733083  0.23301215  0.81360720    -0.73900
O33         O  0.35652051  0.04912958  0.79973153    -0.53200
O34         O  0.39718223  0.13838366  0.72676401    -0.97800
O35         O  0.40322229  0.24693379  0.71943677    -0.55100
O36         O  0.44823698  0.21378542  0.75782330    -0.74400
C37         C  0.47360360  0.23082409  0.78008545     0.97900
O38         O  0.45411913  0.22593555  0.90445527    -0.63200
O39         O  0.33069022  0.28446310  0.84757929    -0.58000
O40         O  0.43071818  0.27080420  0.87879504    -0.94700
O41         O  0.39505450  0.29385772  0.85436598    -0.93200
O42         O  0.29674934  0.19489671  0.93000895    -0.93500
O43         O  0.33051894  0.15633037  0.95830040    -0.92300
C44         C  0.42104104  0.29855127  0.87429539     1.16800
H45         H  0.27523497  0.18171384  0.85213467     0.32700
H46         H  0.36277398  0.12483702  0.90405514     0.43600
H47         H  0.42227127  0.25988170  0.79473633     0.37100
H48         H  0.31843745  0.09669420  0.76570101     0.33600
H49         H  0.26182231  0.08310689  0.95755781     0.25400
H50         H  0.34272771  0.01924051  0.81107461     0.31300
H51         H  0.40621399  0.12590742  0.74508426     0.37200
H52         H  0.27270967  0.17651095  0.94480155     0.31700
H53         H  0.33356419  0.30548337  0.82773222     0.30500
H54         H  0.36477284  0.30366748  0.76277295     0.32200
H55         H  0.41453275  0.24304925  0.69755969     0.31200
H56         H  0.35555203  0.16024931  0.95490445     0.35200
H57         H  0.44332473  0.20184008  0.92373262     0.27900
H58         H  0.21799569  0.08720889  0.75395126     0.32200
H59         H  0.32965870  0.15891825  0.70514617     0.35000
H60         H  0.30332830  0.26588738  0.85375777     0.27600
H61         H  0.47749106  0.22872219  0.89474248     0.40500
H62         H  0.32338037  0.01578884  0.88611694     0.30500
H63         H  0.26034912  0.05727035  0.92548678     0.38200
H64         H  0.42488477  0.26994530  0.73059833     0.30000
H65         H  0.34489486  0.04775847  0.77671438     0.30100
H66         H  0.25514453  0.09861246  0.73215756     0.30300
C67         C  0.18237688  0.28959338  0.73482011     0.85800
C68         C  0.13986887  0.26753610  0.74443043    -0.54400
C69         C  0.12584425  0.29260850  0.73513835     0.08700
C70         C  0.15523127  0.33719185  0.71654569     0.19700
C71         C  0.18693284  0.30329117  0.69425453    -0.55200
C72         C  0.17352803  0.32873750  0.68461735     0.08800
C73         C  0.19967968  0.33143467  0.75289986    -0.54700
C74         C  0.18546527  0.35617766  0.74369162     0.09400
H75         H  0.12196253  0.23568640  0.75803535     0.13900
H76         H  0.14381280  0.35735717  0.70864594    -0.00300
H77         H  0.20110788  0.29500805  0.67476689     0.14200
H78         H  0.22177703  0.34083144  0.77122728     0.14000
C79         C  0.06057986  0.03631216  0.92851726     0.85800
C80         C  0.03685489  0.48846421  0.91784292    -0.54400
C81         C  0.49988937  0.46672700  0.92777312     0.08700
C82         C  0.48711848  0.49166470  0.94965177     0.19700
C83         C  0.04040723  0.05781706  0.91394273    -0.55200
C84         C  0.50151729  0.03354181  0.92354384     0.08800
C85         C  0.05050719  0.02904491  0.96948046    -0.54700
C86         C  0.01310126  0.00567969  0.97942201     0.09400
H87         H  0.05016932  0.47537752  0.90261582     0.13900
H88         H  0.45681724  0.47340371  0.95847143    -0.00300
H89         H  0.05491812  0.08878310  0.89808873     0.14200
H90         H  0.07011113  0.03777809  0.99003251     0.14000
Zr91       Zr  0.47745180  0.05139310  0.52994008     2.17500
O92         O  0.45547596  0.06493044  0.58558641    -0.52000
O93         O  0.45505912  0.08690886  0.49019880    -0.75200
O94         O  0.02368773  0.12144420  0.55095909    -0.82000
O95         O  0.38948149  0.43898708  0.53027879    -0.83800
O96         O  0.08196736  0.13590562  0.53474141    -0.79400
O97         O  0.40960839  0.50529749  0.54711408    -0.91000
O98         O  0.46353233  0.07515757  0.43247058    -0.77000
O99         O  0.02498482  0.08390574  0.48075615    -0.86500
O100        O  0.45288964  0.50938020  0.47962215    -0.86200
O101        O  0.02923272  0.04787749  0.55122117    -0.72900
O102        O  0.46325762  0.48055823  0.54885183    -0.85000
Zr103      Zr  0.03933275  0.47012364  0.47041478     2.26400
Zr104      Zr  0.07603918  0.07952746  0.50160512     2.06300
Zr105      Zr  0.44009773  0.43999479  0.49822914     2.10000
Zr106      Zr  0.50135471  0.04353343  0.43178472     1.78800
O107        O  0.40044871  0.37283276  0.53588508    -0.93900
O108        O  0.04331355  0.11352338  0.40155902    -0.41700
O109        O  0.48627610  0.47124450  0.44819175    -0.78300
O110        O  0.05322680  0.03948528  0.45055173    -0.97000
O111        O  0.06191045  0.00962384  0.52075109    -0.90300
O112        O  0.49157935  0.43655952  0.51850973    -0.93100
C113        C  0.45059481  0.08851565  0.45625501     1.00600
C114        C  0.38391731  0.46567883  0.54476745     1.13600
C115        C  0.05991577  0.14473453  0.55046630     1.04300
O116        O  0.11157524  0.14340535  0.45918207    -0.95300
O117        O  0.12789315  0.07695659  0.47690653    -0.91000
O118        O  0.10724478  0.01179914  0.45721950    -0.84200
C119        C  0.13348131  0.05014111  0.46267074     1.11000
O120        O  0.99774034  0.49211788  0.62690919    -0.97300
Zr121      Zr  0.01585767  0.47929752  0.56870448     1.88900
O122        O  0.06276043  0.43713606  0.51172174    -0.73900
O123        O  0.12595556  0.10112789  0.54233854    -0.53200
O124        O  0.06612012  0.01725658  0.60672254    -0.97800
O125        O  0.47032468  0.41091894  0.60261661    -0.55100
O126        O  0.04824519  0.44151243  0.56973988    -0.74400
C127        C  0.06384133  0.43118964  0.54602240     0.97900
O128        O  0.05978709  0.45710858  0.41341517    -0.63200
O129        O  0.39374976  0.42285881  0.45406252    -0.58000
O130        O  0.99402232  0.39637398  0.45491041    -0.94700
O131        O  0.43496613  0.38076534  0.47060125    -0.93200
O132        O  0.45095249  0.49777873  0.39235067    -0.93500
O133        O  0.02201285  0.03926105  0.37083800    -0.92300
C134        C  0.45679946  0.37079246  0.45622090     1.16800
H135        H  0.42956894  0.50625042  0.47332632     0.32700
H136        H  0.07248629  0.05195214  0.43084710     0.43600
H137        H  0.48427618  0.40733014  0.52519838     0.37100
H138        H  0.03820072  0.06373442  0.57201740     0.33600
H139        H  0.02939612  0.11660177  0.38181960     0.25400
H140        H  0.14206677  0.13267490  0.53774292     0.31300
H141        H  0.06805137  0.49407954  0.62185379     0.37200
H142        H  0.43016328  0.99913288  0.40212168     0.31700
H143        H  0.40539135  0.42062601  0.43157620     0.30500
H144        H  0.37672072  0.35785409  0.52386948     0.32200
H145        H  0.97461173  0.39018471  0.59422498     0.31200
H146        H  0.02642452  0.01548908  0.37335145     0.39100
H147        H  0.03706126  0.44263128  0.39989820     0.27900
H148        H  0.45554125  0.09143861  0.57947592     0.32200
H149        H  0.00345895  0.47615924  0.64531297     0.35000
H150        H  0.37324578  0.39308858  0.46195709     0.27600
H151        H  0.07537980  0.48564914  0.39966864     0.40500
H152        H  0.13500515  0.16188092  0.47080442     0.30500
H153        H  0.04445073  0.13316560  0.41893007     0.38200
H154        H  0.44699902  0.40019396  0.59012523     0.30000
H155        H  0.11359128  0.09561706  0.56679748     0.30100
H156        H  0.47573269  0.07299528  0.60208097     0.30300
C157        C  0.29088123  0.13795827  0.40885550     0.85800
C158        C  0.29801125  0.14674231  0.36755145    -0.54400
C159        C  0.33487293  0.16709111  0.35524560     0.08700
C160        C  0.36162902  0.17872598  0.38608763     0.19700
C161        C  0.31078129  0.11486908  0.42059210    -0.55200
C162        C  0.34778625  0.13651182  0.40911173     0.08800
C163        C  0.31526722  0.18335966  0.42170621    -0.54700
C164        C  0.35253530  0.20433869  0.41017501     0.09400
H165        H  0.27564715  0.13805140  0.34987449     0.13900
H166        H  0.39188891  0.19532658  0.37789441    -0.00300
H167        H  0.29722001  0.08515599  0.43821797     0.14200
H168        H  0.30441647  0.19787915  0.43837593     0.14000
C169        C  0.22331260  0.38011010  0.59203298     0.85800
C170        C  0.20252724  0.40298195  0.58251302    -0.54400
C171        C  0.16568115  0.38097657  0.59540827     0.08700
C172        C  0.15325816  0.33899980  0.61907582     0.19700
C173        C  0.21836341  0.37316424  0.63326783    -0.55200
C174        C  0.18219172  0.35074245  0.64758525     0.08800
C175        C  0.19748298  0.33486469  0.57917988    -0.54700
C176        C  0.16101136  0.31330968  0.59374592     0.09400
H177        H  0.21447115  0.43281445  0.56565937     0.13900
H178        H  0.12377062  0.32143676  0.63076396    -0.00300
H179        H  0.24173460  0.38248034  0.64998510     0.14200
H180        H  0.20668009  0.32155012  0.55938454     0.14000
Zr181      Zr  0.10977342  0.29020175  0.14029874     2.17500
O182        O  0.08221258  0.28112397  0.08237595    -0.52000
O183        O  0.05277596  0.25764530  0.17978717    -0.75200
O184        O  0.08333811  0.21694842  0.12401878    -0.82000
O185        O  0.12607154  0.40147116  0.13877139    -0.83800
O186        O  0.12112819  0.19514863  0.14548844    -0.79400
O187        O  0.08489523  0.33489139  0.12278051    -0.91000
O188        O  0.06984658  0.27169082  0.23683986    -0.77000
O189        O  0.12033318  0.25668016  0.19170574    -0.86500
O190        O  0.12445338  0.33565140  0.18752094    -0.86200
O191        O  0.16202406  0.28502332  0.12104772    -0.72900
O192        O  0.16444847  0.35770479  0.11724021    -0.85000
Zr193      Zr  0.24262351  0.36547078  0.19949779     2.26400
Zr194      Zr  0.17290631  0.25277153  0.17330492     2.06300
Zr195      Zr  0.17848016  0.40224883  0.16511592     2.10000
Zr196      Zr  0.13608559  0.30298292  0.23832182     1.78800
O197        O  0.20905237  0.46258193  0.11871781    -0.93900
O198        O  0.10941267  0.23433199  0.27434685    -0.41700
O199        O  0.19032827  0.37080992  0.21740006    -0.78300
O200        O  0.18822144  0.29731480  0.22178311    -0.97000
O201        O  0.22813014  0.31994099  0.15245091    -0.90300
O202        O  0.23172503  0.39866887  0.14799262    -0.93100
C203        C  0.04536873  0.25711782  0.21356730     1.00600
C204        C  0.09554786  0.37414700  0.12558660     1.13600
C205        C  0.09291137  0.18927433  0.12850335     1.04300
O206        O  0.14666420  0.19490190  0.22204713    -0.95300
O207        O  0.22591304  0.25290024  0.19551805    -0.91000
O208        O  0.26313756  0.31611825  0.21918328    -0.84200
C209        C  0.25389433  0.27798781  0.21282554     1.11000
O210        O  0.19561393  0.34314922  0.04076068    -0.97300
Zr211      Zr  0.21745733  0.35272846  0.10131033     1.88900
O212        O  0.29980267  0.39901102  0.15968230    -0.73900
O213        O  0.19573168  0.21830939  0.13615128    -0.53200
O214        O  0.23206197  0.30623566  0.07140706    -0.97800
O215        O  0.24365277  0.42006403  0.06329845    -0.55100
O216        O  0.28462064  0.38608058  0.10206846    -0.74400
C217        C  0.30855959  0.40087473  0.12598600     0.97900
O218        O  0.27513960  0.38463300  0.25476527    -0.63200
O219        O  0.15579012  0.43748858  0.20146568    -0.58000
O220        O  0.26324840  0.43664399  0.21942629    -0.94700
O221        O  0.22561165  0.45789553  0.19695834    -0.93200
O222        O  0.12107964  0.34595653  0.27325365    -0.93500
O223        O  0.15855465  0.31023839  0.29861558    -0.92300
C224        C  0.25289246  0.46381595  0.21529029     1.16800
H225        H  0.10435442  0.33995471  0.19353463     0.32700
H226        H  0.19378438  0.28494719  0.24248638     0.43600
H227        H  0.25328870  0.42695327  0.14086964     0.37100
H228        H  0.15563846  0.26709660  0.10146673     0.33600
H229        H  0.08885817  0.23173109  0.29006394     0.25400
H230        H  0.18205547  0.18801879  0.14647634     0.31300
H231        H  0.24561863  0.29907834  0.08895094     0.37200
H232        H  0.13721481  0.37550841  0.26150261     0.31700
H233        H  0.15844448  0.46131828  0.18504404     0.30500
H234        H  0.21192954  0.48704728  0.13077273     0.32200
H235        H  0.26653931  0.44095217  0.07448871     0.31200
H236        H  0.18310724  0.31286090  0.29561279     0.35200
H237        H  0.26024935  0.35915404  0.27244922     0.27900
H238        H  0.05621531  0.25614342  0.08694533     0.32200
H239        H  0.21830629  0.35386840  0.02430042     0.35000
H240        H  0.12840388  0.41708349  0.20590567     0.27600
H241        H  0.29904564  0.38625867  0.24963593     0.40500
H242        H  0.16354645  0.20655296  0.24177717     0.30500
H243        H  0.09652577  0.21256600  0.25720159     0.38200
H244        H  0.22582077  0.42924737  0.06757070     0.30000
H245        H  0.18572177  0.21774746  0.11232708     0.30100
H246        H  0.09529670  0.27137320  0.06711770     0.30300
C247        C  0.01557343  0.45487340  0.07343082     0.85800
C248        C  0.47531449  0.43821873  0.08736926    -0.54400
C249        C  0.46154132  0.46267167  0.07510151     0.08700
C250        C  0.48980129  0.00245910  0.04777390     0.19700
C251        C  0.01481031  0.45967833  0.03198486    -0.55200
C252        C  0.00145763  0.48442208  0.01930738     0.08800
C253        C  0.03921772  0.00231901  0.07896633    -0.54700
C254        C  0.02529302  0.02687959  0.06783014     0.09400
H255        H  0.45903133  0.40934078  0.10580555     0.13900
H256        H  0.47898698  0.02269305  0.03815371    -0.00300
H257        H  0.02838479  0.44980286  0.01343807     0.14200
H258        H  0.06405300  0.01476057  0.09396668     0.14000
C259        C  0.39251357  0.19909845  0.26339115     0.85800
C260        C  0.37005559  0.15284096  0.25452088    -0.54400
C261        C  0.33306098  0.13101319  0.26557999     0.08700
C262        C  0.32132255  0.15828017  0.28489959     0.19700
C263        C  0.37228473  0.22019751  0.24788148    -0.55200
C264        C  0.33499777  0.19884916  0.25856791     0.08800
C265        C  0.38463449  0.19688922  0.30435204    -0.54700
C266        C  0.34754851  0.17479779  0.31611217     0.09400
H267        H  0.38279531  0.13844273  0.24025647     0.13900
H268        H  0.29101898  0.14085601  0.29315555    -0.00300
H269        H  0.38644076  0.25117486  0.23225564     0.14200
H270        H  0.40653699  0.21393818  0.32204927     0.14000
C271        C  0.41326223  0.44347958  0.12449959    -0.27000
C272        C  0.42353301  0.45201545  0.08733878    -0.15100
C273        C  0.39645200  0.44623539  0.06301377     0.35600
C274        C  0.35976203  0.43121597  0.07636549    -0.26500
C275        C  0.34883057  0.42068147  0.11361789    -0.15700
C276        C  0.37624439  0.42720679  0.13796499     0.36600
N277        N  0.36636503  0.41570796  0.17611225    -0.89900
H278        H  0.43407455  0.44793841  0.14313073     0.17700
H279        H  0.33937808  0.42658565  0.05716628     0.17700
N280        N  0.40449373  0.45255901  0.02465145    -0.89000
H281        H  0.39006369  0.42388760  0.19012857     0.35100
H282        H  0.34898941  0.38235859  0.18016490     0.40200
H283        H  0.41553621  0.43433396  0.01757086     0.39800
H284        H  0.42417342  0.48482741  0.01697209     0.34700
C285        C  0.09573800  0.13898813  0.09085383    -0.27000
C286        C  0.07299578  0.14920131  0.11035520    -0.15100
C287        C  0.03343368  0.12083962  0.11185756     0.35600
C288        C  0.01830755  0.08261738  0.09501671    -0.26500
C289        C  0.04155067  0.07135026  0.07789155    -0.15700
C290        C  0.08056917  0.10079451  0.07449330     0.36600
N291        N  0.10474347  0.09165236  0.05455967    -0.89900
H292        H  0.12586314  0.16105021  0.08849351     0.17700
H293        H  0.48892691  0.05955873  0.10093538     0.17700
N294        N  0.00786453  0.12835172  0.13132772    -0.89000
H295        H  0.13285440  0.11581646  0.05573115     0.35100
H296        H  0.09900515  0.09217253  0.02749582     0.40200
H297        H  0.02200510  0.15524902  0.14544731     0.39800
H298        H  0.99221050  0.10247013  0.15094832     0.34700
C299        C  0.06300784  0.41262481  0.13616157    -0.27000
C300        C  0.07119251  0.38960180  0.11332094    -0.15100
C301        C  0.05709602  0.38304578  0.07899259     0.35600
C302        C  0.03725169  0.40205487  0.06728076    -0.26500
C303        C  0.03147148  0.42825901  0.08889951    -0.15700
C304        C  0.04215283  0.43053362  0.12498169     0.36600
N305        N  0.03261724  0.45183750  0.14999505    -0.89900
H306        H  0.07282809  0.41644916  0.16305596     0.17700
H307        H  0.02649651  0.39603125  0.04098880     0.17700
N308        N  0.06400008  0.35824289  0.05562916    -0.89000
H309        H  0.04352802  0.45173779  0.17485698     0.35100
H310        H  0.00348109  0.43409408  0.15495117     0.40200
H311        H  0.09288854  0.37475965  0.04896370     0.39800
H312        H  0.05142366  0.35599512  0.03139166     0.34700
C313        C  0.29562835  0.22888242  0.27332963    -0.27000
C314        C  0.31204455  0.21665283  0.24741046    -0.15100
C315        C  0.31004164  0.22579920  0.21053507     0.35600
C316        C  0.29218530  0.24731636  0.19999992    -0.26500
C317        C  0.27644385  0.26048670  0.22568111    -0.15700
C318        C  0.27779811  0.25084458  0.26276740     0.36600
N319        N  0.26075221  0.26291182  0.28941190    -0.89900
H320        H  0.29741790  0.22207949  0.30172394     0.17700
H321        H  0.29028007  0.25344292  0.17149031     0.17700
N322        N  0.32563672  0.21249501  0.18367853    -0.89000
H323        H  0.26439106  0.25371156  0.31539527     0.35100
H324        H  0.23188960  0.24575313  0.28662349     0.40200
H325        H  0.34552233  0.23962123  0.16692526     0.39800
H326        H  0.30413811  0.19229043  0.16803067     0.34700
C327        C  0.32265242  0.05831459  0.26338098    -0.27000
C328        C  0.30854182  0.08525065  0.25903950    -0.15100
C329        C  0.27400052  0.06974908  0.24411430     0.35600
C330        C  0.25550589  0.02909539  0.23166333    -0.26500
C331        C  0.27101844  0.00325453  0.23316627    -0.15700
C332        C  0.30466494  0.01782597  0.25028990     0.36600
N333        N  0.32148516  0.49307253  0.25492682    -0.89900
H334        H  0.34890227  0.06979183  0.27571232     0.17700
H335        H  0.22925354  0.01851618  0.21960416     0.17700
N336        N  0.25837118  0.09583642  0.23987488    -0.89000
H337        H  0.34451243  0.00674532  0.26884270     0.35100
H338        H  0.33197448  0.49229908  0.22942455     0.40200
H339        H  0.23185247  0.07938288  0.25379153     0.39800
H340        H  0.25495712  0.09980890  0.21247461     0.34700
C341        C  0.48145361  0.24056501  0.20065092    -0.27000
C342        C  0.00634825  0.24099945  0.22658582    -0.15100
C343        C  0.99438956  0.22964023  0.26361785     0.35600
C344        C  0.45841158  0.21843540  0.27378005    -0.26500
C345        C  0.43339079  0.21901789  0.24967979    -0.15700
C346        C  0.44513139  0.22850959  0.21211847     0.36600
N347        N  0.42079975  0.22444299  0.18442073    -0.89900
H348        H  0.49006293  0.24909263  0.17207211     0.17700
H349        H  0.44959462  0.20647491  0.30176092     0.17700
N350        N  0.01790097  0.22656922  0.28935941    -0.89000
H351        H  0.41481110  0.24832953  0.18481156     0.35100
H352        H  0.39621854  0.19416085  0.18775754     0.40200
H353        H  0.02034270  0.20086456  0.28362172     0.39800
H354        H  0.00545918  0.21927491  0.31567402     0.34700
C355        C  0.18321758  0.05579509  0.41953943    -0.27000
C356        C  0.17331754  0.06641355  0.45156403    -0.15100
C357        C  0.20216695  0.09621327  0.47151206     0.35600
C358        C  0.23944537  0.11851482  0.45723390    -0.26500
C359        C  0.24941649  0.11178517  0.42318720    -0.15700
C360        C  0.22110472  0.07685006  0.40590231     0.36600
N361        N  0.23068254  0.06247210  0.37491569    -0.89900
H362        H  0.16137927  0.03159724  0.40482019     0.17700
H363        H  0.26065301  0.14077248  0.47357442     0.17700
N364        N  0.19378869  0.10364176  0.50676750    -0.89000
H365        H  0.20671989  0.03679879  0.36560047     0.35100
H366        H  0.24738629  0.05081609  0.38319502     0.40200
H367        H  0.20370957  0.13620371  0.50663834     0.39800
H368        H  0.20847949  0.09641313  0.52507980     0.34700
C369        C  0.41086662  0.29325223  0.46966946    -0.27000
C370        C  0.43687992  0.32692331  0.44434168    -0.15100
C371        C  0.43689009  0.31924034  0.40774127     0.35600
C372        C  0.40980581  0.27863974  0.39719927    -0.26500
C373        C  0.38227579  0.24600248  0.42239994    -0.15700
C374        C  0.38411153  0.25285584  0.45926636     0.36600
N375        N  0.35885130  0.21872083  0.48607066    -0.89900
H376        H  0.41072584  0.29903816  0.49779117     0.17700
H377        H  0.40912536  0.27306209  0.36897677     0.17700
N378        N  0.46309208  0.35305787  0.38125520    -0.89000
H379        H  0.36383467  0.22899599  0.51191701     0.35100
H380        H  0.36470819  0.19461501  0.48555654     0.40200
H381        H  0.45662028  0.37673179  0.37984184     0.39800
H382        H  0.45972608  0.34202872  0.35569675     0.34700
C383        C  0.40536704  0.15308719  0.43867162    -0.27000
C384        C  0.37372995  0.12380989  0.42160908    -0.15100
C385        C  0.36773468  0.08359568  0.41622598     0.35600
C386        C  0.39418737  0.07381692  0.42670336    -0.26500
C387        C  0.42587208  0.10293533  0.44390135    -0.15700
C388        C  0.43142723  0.14309466  0.45026892     0.36600
N389        N  0.46303378  0.17455558  0.46781376    -0.89900
H390        H  0.40979559  0.18398747  0.44320547     0.17700
H391        H  0.38940028  0.04271606  0.42227907     0.17700
N392        N  0.33489002  0.05271459  0.40009624    -0.89000
H393        H  0.98060234  0.20277606  0.44745917     0.35100
H394        H  0.98421592  0.16538071  0.47111593     0.40200
H395        H  0.34338440  0.04473325  0.37690836     0.39800
H396        H  0.32031467  0.02518538  0.41831149     0.34700
C397        C  0.32506066  0.40608296  0.57683329    -0.27000
C398        C  0.34457518  0.44768607  0.55925106    -0.15100
C399        C  0.32439515  0.46735047  0.55113252     0.35600
C400        C  0.28565806  0.44538745  0.56114671    -0.26500
C401        C  0.26544288  0.40298319  0.57865373    -0.15700
C402        C  0.28645114  0.38354080  0.58613136     0.36600
N403        N  0.26988440  0.34052376  0.60252560    -0.89900
H404        H  0.33996375  0.39007384  0.58257203     0.17700
H405        H  0.27217330  0.46260079  0.55476132     0.17700
N406        N  0.34208397  0.50885062  0.53139830    -0.89000
H407        H  0.25146180  0.31888471  0.58553743     0.35100
H408        H  0.25606880  0.33635333  0.62750312     0.40200
H409        H  0.35192648  0.00677974  0.50564656     0.39800
H410        H  0.36282089  0.03096931  0.54445149     0.34700
C411        C  0.07312639  0.21783469  0.56045998    -0.27000
C412        C  0.07935467  0.18470736  0.56893335    -0.15100
C413        C  0.10971549  0.19309816  0.58970171     0.35600
C414        C  0.13591074  0.23504471  0.59735818    -0.26500
C415        C  0.13155875  0.26896891  0.58623732    -0.15700
C416        C  0.09867768  0.25981659  0.56941656     0.36600
N417        N  0.09216469  0.29345949  0.55997600    -0.89900
H418        H  0.04969779  0.21163703  0.54491841     0.17700
H419        H  0.15983536  0.24114485  0.61207011     0.17700
N420        N  0.11400186  0.15882822  0.60308756    -0.89000
H421        H  0.06630442  0.28128688  0.54889435     0.35100
H422        H  0.11255915  0.31404599  0.53956661     0.40200
H423        H  0.11292422  0.15752182  0.63126680     0.39800
H424        H  0.14063781  0.16627576  0.59393742     0.34700
C425        C  0.11408401  0.41660514  0.53430994    -0.27000
C426        C  0.08690012  0.41398861  0.55881839    -0.15100
C427        C  0.08508578  0.39904653  0.59532668     0.35600
C428        C  0.11074277  0.38810158  0.60651638    -0.26500
C429        C  0.13878859  0.39242758  0.58222455    -0.15700
C430        C  0.14000022  0.40617996  0.54540854     0.36600
N431        N  0.16760730  0.40992562  0.51924508    -0.89900
H432        H  0.11604512  0.42819301  0.50630885     0.17700
H433        H  0.10926716  0.37718093  0.63463670     0.17700
N434        N  0.05755159  0.39523109  0.62131882    -0.89000
H435        H  0.16492819  0.42110804  0.49364797     0.35100
H436        H  0.16276984  0.37946175  0.51712358     0.40200
H437        H  0.07158116  0.41464515  0.64170074     0.39800
H438        H  0.04175652  0.36350232  0.63285862     0.34700
C439        C  0.42299559  0.36326235  0.89347081    -0.27000
C440        C  0.43995876  0.33895193  0.89289942    -0.15100
C441        C  0.47464922  0.35525601  0.90859426     0.35600
C442        C  0.49224440  0.39567107  0.92152641    -0.26500
C443        C  0.47651694  0.42114139  0.91946011    -0.15700
C444        C  0.44087153  0.40401705  0.90625552     0.36600
N445        N  0.42345181  0.42849391  0.90446722    -0.89900
H446        H  0.39588441  0.35106869  0.88280809     0.17700
H447        H  0.01586009  0.40446969  0.93566014     0.17700
N448        N  0.49326240  0.33229442  0.91137224    -0.89000
H449        H  0.39694777  0.41098942  0.89460090     0.35100
H450        H  0.43971690  0.45512444  0.88574818     0.40200
H451        H  0.49849092  0.32636078  0.88553665     0.39800
H452        H  0.97072856  0.30018407  0.92910692     0.34700
C453        C  0.14936010  0.07974083  0.86598205    -0.27000
C454        C  0.17616404  0.08623676  0.89046192    -0.15100
C455        C  0.16594290  0.08005933  0.92780498     0.35600
C456        C  0.12950367  0.06708406  0.93979484    -0.26500
C457        C  0.10195361  0.05886727  0.91548407    -0.15700
C458        C  0.11262967  0.06611508  0.87802148     0.36600
N459        N  0.08578708  0.05805903  0.85197996    -0.89900
H460        H  0.15665623  0.08463903  0.83719763     0.17700
H461        H  0.12354361  0.06205818  0.96854159     0.17700
N462        N  0.19203537  0.08558975  0.95405188    -0.89000
H463        H  0.09555181  0.08635756  0.83525895     0.35100
H464        H  0.08430213  0.03511250  0.83606522     0.40200
H465        H  0.18104249  0.05661463  0.97015745     0.39800
H466        H  0.19451488  0.10855572  0.97053894     0.34700
C467        C  0.46059803  0.06198712  0.93676632    -0.27000
C468        C  0.47830854  0.05080866  0.91131799    -0.15100
C469        C  0.47775274  0.06114052  0.87416382     0.35600
C470        C  0.45935830  0.08210660  0.86326593    -0.26500
C471        C  0.44208515  0.09385133  0.88861113    -0.15700
C472        C  0.44253890  0.08355671  0.92576049     0.36600
N473        N  0.42464403  0.09494494  0.95209471    -0.89900
H474        H  0.95550634  0.04553438  0.96543979     0.17700
H475        H  0.45829862  0.08919048  0.83474305     0.17700
N476        N  0.49634228  0.55298515  0.84982298    -0.89000
H477        H  0.42788734  0.08558570  0.97818971     0.35100
H478        H  0.39589223  0.07750632  0.94876908     0.40200
H479        H  0.49368203  0.56354576  0.82394997     0.39800
H480        H  0.48346507  0.51982468  0.85071669     0.34700
C481        C  0.25990297  0.26559240  0.74674075    -0.27000
C482        C  0.24135473  0.22567338  0.76711209    -0.15100
C483        C  0.20227697  0.20442660  0.77546132     0.35600
C484        C  0.18309232  0.22462141  0.76454103    -0.26500
C485        C  0.20192372  0.26541122  0.74473656    -0.15700
C486        C  0.24084583  0.28532191  0.73537893     0.36600
N487        N  0.26158053  0.32637167  0.71479401    -0.89900
H488        H  0.28982320  0.28210368  0.73984714     0.17700
H489        H  0.15356873  0.20816242  0.77235779     0.17700
N490        N  0.18244263  0.16341232  0.79639266    -0.89000
H491        H  0.28296640  0.34757950  0.73004328     0.35100
H492        H  0.27402753  0.32337985  0.69145730     0.40200
H493        H  0.18150757  0.14107012  0.78006953     0.39800
H494        H  0.15457656  0.15375524  0.80272286     0.34700
C495        C  0.03911974  0.28554677  0.77629504    -0.27000
C496        C  0.51264234  0.24830389  0.76598142    -0.15100
C497        C  0.02049073  0.22030027  0.74816954     0.35600
C498        C  0.05797394  0.23791000  0.73596036    -0.26500
C499        C  0.08629411  0.27824847  0.74459717    -0.15700
C500        C  0.07676015  0.30232546  0.76488512     0.36600
N501        N  0.10526771  0.34294291  0.77530920    -0.89900
H502        H  0.53541650  0.30510429  0.79405403     0.17700
H503        H  0.06527641  0.21909645  0.72071587     0.17700
N504        N  0.99378013  0.17695974  0.74105067    -0.89000
H505        H  0.10348164  0.34128937  0.80349730     0.35100
H506        H  0.09959476  0.36591429  0.76541334     0.40200
H507        H  0.49796205  0.16271426  0.73884878     0.39800
H508        H  0.00298442  0.15767746  0.75220857     0.34700
C509        C  0.20658566  0.43327175  0.73536949    -0.27000
C510        C  0.19829342  0.39744154  0.75872322    -0.15100
C511        C  0.20389696  0.40177958  0.79578558     0.35600
C512        C  0.22064050  0.44245371  0.80806188    -0.26500
C513        C  0.23122037  0.47873720  0.78434762    -0.15700
C514        C  0.22328545  0.47410250  0.74775292     0.36600
N515        N  0.22908252  0.01006078  0.72511806    -0.89900
H516        H  0.20192267  0.42981261  0.70700772     0.17700
H517        H  0.22640616  0.44612063  0.83620632     0.17700
N518        N  0.19296622  0.36497929  0.82075350    -0.89000
H519        H  0.21857298  0.00053471  0.70008323     0.35100
H520        H  0.25821586  0.02977187  0.72048976     0.40200
H521        H  0.16386303  0.34464328  0.82117596     0.39800
H522        H  0.19902593  0.37376805  0.84695483     0.34700
Zr523      Zr  0.27540898  0.62427520  0.80381325     2.17500
O524        O  0.24410523  0.60897611  0.74778043    -0.52000
O525        O  0.21969355  0.59822001  0.84398867    -0.75200
O526        O  0.24687611  0.54968885  0.79137359    -0.82000
O527        O  0.29682923  0.73712546  0.79255637    -0.83800
O528        O  0.28354781  0.52670799  0.81375498    -0.79400
O529        O  0.25187227  0.66899551  0.78352247    -0.91000
O530        O  0.23903294  0.61628546  0.89967428    -0.77000
O531        O  0.28661710  0.59265414  0.85596931    -0.86500
O532        O  0.29323728  0.67361398  0.84823033    -0.86200
O533        O  0.32581523  0.61592162  0.78435268    -0.72900
O534        O  0.32980667  0.68992996  0.77726854    -0.85000
Zr535      Zr  0.41053455  0.69931627  0.85788299     2.26400
Zr536      Zr  0.33761900  0.58581055  0.83731830     2.06300
Zr537      Zr  0.34778193  0.73795665  0.82266889     2.10000
Zr538      Zr  0.30482020  0.64225942  0.90000486     1.78800
O539        O  0.38169997  0.79638612  0.77485035    -0.93900
O540        O  0.27319343  0.57352584  0.93682585    -0.41700
O541        O  0.35984524  0.70767756  0.87563745    -0.78300
O542        O  0.35550747  0.63343479  0.88381137    -0.97000
O543        O  0.39282650  0.65090749  0.81258185    -0.90300
O544        O  0.39926153  0.73107229  0.80561750    -0.93100
C545        C  0.21360819  0.60127503  0.87727590     1.00600
C546        C  0.26481992  0.70925638  0.78194151     1.13600
C547        C  0.25510278  0.52110766  0.79745961     1.04300
O548        O  0.31066573  0.52724579  0.88543011    -0.95300
O549        O  0.38831472  0.58356957  0.86296916    -0.91000
O550        O  0.42809602  0.64883314  0.88220475    -0.84200
C551        C  0.41725672  0.60957799  0.87872643     1.11000
O552        O  0.35001150  0.66588579  0.70449441    -0.97300
Zr553      Zr  0.38091918  0.68219856  0.76078266     1.88900
O554        O  0.46602044  0.72863474  0.81549524    -0.73900
O555        O  0.35943492  0.55253817  0.79748109    -0.53200
O556        O  0.39773030  0.64065152  0.72595371    -0.97800
O557        O  0.40502312  0.74832897  0.72143694    -0.55100
O558        O  0.44789928  0.71515569  0.75846218    -0.74400
C559        C  0.47272437  0.72896551  0.78150362     0.97900
O560        O  0.45442447  0.72669567  0.90485043    -0.63200
O561        O  0.32640348  0.77748721  0.85448624    -0.58000
O562        O  0.42867733  0.76837160  0.88126995    -0.94700
O563        O  0.39372868  0.79224812  0.85657719    -0.93200
O564        O  0.29601775  0.69025104  0.93443777    -0.93500
O565        O  0.32919084  0.65028061  0.95945150    -0.92300
C566        C  0.41938255  0.79644819  0.87667162     1.16800
H567        H  0.27414599  0.67969866  0.85374829     0.32700
H568        H  0.36101651  0.62188152  0.90512449     0.43600
H569        H  0.42133008  0.75858578  0.79765489     0.37100
H570        H  0.31812038  0.59657959  0.76575054     0.33600
H571        H  0.26198992  0.57794460  0.95849013     0.25400
H572        H  0.35008439  0.52377926  0.80993191     0.31300
H573        H  0.39701600  0.61922868  0.74395941     0.37200
H574        H  0.30724566  0.71716645  0.91828156     0.31700
H575        H  0.32841634  0.79935956  0.83604620     0.30500
H576        H  0.40689820  0.81511544  0.78339235     0.32200
H577        H  0.42114633  0.74725885  0.70225737     0.31200
H578        H  0.35580568  0.67387125  0.95522174     0.35200
H579        H  0.44201446  0.70550274  0.92627792     0.27900
H580        H  0.21815306  0.58458833  0.75435333     0.32200
H581        H  0.37032984  0.67913332  0.68486341     0.35000
H582        H  0.29913275  0.75731325  0.86013543     0.27600
H583        H  0.47594498  0.72459924  0.89691029     0.40500
H584        H  0.31548970  0.54125230  0.90806765     0.30500
H585        H  0.25138821  0.55414321  0.92355277     0.38200
H586        H  0.42292149  0.77160546  0.73539397     0.30000
H587        H  0.34470141  0.54706410  0.77605451     0.30100
H588        H  0.25600816  0.59741729  0.73308352     0.30300
C589        C  0.18219058  0.78911416  0.73575765     0.85800
C590        C  0.13991411  0.76710975  0.74623544    -0.54400
C591        C  0.12558868  0.79188110  0.73706605     0.08700
C592        C  0.15450329  0.83625104  0.71766319     0.19700
C593        C  0.18599765  0.80213484  0.69519318    -0.55200
C594        C  0.17231345  0.82729116  0.68556474     0.08800
C595        C  0.19973643  0.83140426  0.75335043    -0.54700
C596        C  0.18528221  0.85599570  0.74424771     0.09400
H597        H  0.12247648  0.73568902  0.76073342     0.13900
H598        H  0.14272589  0.85605421  0.70980810    -0.00300
H599        H  0.20026555  0.79396464  0.67569506     0.14200
H600        H  0.22207360  0.84110695  0.77141195     0.14000
C601        C  0.05872074  0.53392308  0.92929180     0.85800
C602        C  0.03936876  0.99140172  0.91604876    -0.54400
C603        C  0.50006740  0.96572712  0.92737681     0.08700
C604        C  0.48748621  0.99143802  0.94838197     0.19700
C605        C  0.03841887  0.55516545  0.91480094    -0.55200
C606        C  0.50101333  0.53419960  0.92553975     0.08800
C607        C  0.04977158  0.52736019  0.97040357    -0.54700
C608        C  0.01260773  0.50469001  0.98140169     0.09400
H609        H  0.05332482  0.97904510  0.90080211     0.13900
H610        H  0.45721884  0.97355410  0.95727294    -0.00300
H611        H  0.05289086  0.58575971  0.89838320     0.14200
H612        H  0.06998696  0.53453738  0.99020596     0.14000
Zr613      Zr  0.47763294  0.55150071  0.52913810     2.17500
O614        O  0.45424413  0.56566003  0.58363098    -0.52000
O615        O  0.45550640  0.58705440  0.48878043    -0.75200
O616        O  0.02453364  0.62306270  0.54996324    -0.82000
O617        O  0.38835768  0.93966324  0.52818769    -0.83800
O618        O  0.08281330  0.63768900  0.53339839    -0.79400
O619        O  0.40921474  0.00525502  0.54714028    -0.91000
O620        O  0.46095022  0.57188908  0.43159861    -0.77000
O621        O  0.02528560  0.58514544  0.47970458    -0.86500
O622        O  0.45352531  0.01025867  0.47972359    -0.86200
O623        O  0.03029438  0.54980512  0.55023870    -0.72900
O624        O  0.46214482  0.98003470  0.54917461    -0.85000
Zr625      Zr  0.03846067  0.96848775  0.47070749     2.26400
Zr626      Zr  0.07671003  0.58134088  0.50023655     2.06300
Zr627      Zr  0.43964135  0.94043976  0.49802142     2.10000
Zr628      Zr  0.49991814  0.54201107  0.43094856     1.78800
O629        O  0.39757870  0.87431304  0.53610800    -0.93900
O630        O  0.03914145  0.61466506  0.40056391    -0.41700
O631        O  0.48676568  0.97224384  0.44889036    -0.78300
O632        O  0.05344493  0.54073074  0.44961010    -0.97000
O633        O  0.06292044  0.51173030  0.52014016    -0.90300
O634        O  0.49047459  0.93625451  0.51935732    -0.93100
C635        C  0.44950215  0.58695631  0.45510210     1.00600
C636        C  0.38319746  0.96604694  0.54372162     1.13600
C637        C  0.06077392  0.64642228  0.54925819     1.04300
O638        O  0.10934284  0.64433271  0.45646159    -0.95300
O639        O  0.12864185  0.57845481  0.47608041    -0.91000
O640        O  0.10792123  0.51352631  0.45597337    -0.84200
C641        C  0.13418778  0.55175681  0.46156804     1.11000
O642        O  0.99142806  0.98443283  0.62709537    -0.97300
Zr643      Zr  0.01459375  0.97718357  0.56904390     1.88900
O644        O  0.06077203  0.93379179  0.51152176    -0.73900
O645        O  0.12899957  0.60600947  0.53841178    -0.53200
O646        O  0.06984816  0.51652877  0.60424858    -0.97800
O647        O  0.46977317  0.90830154  0.60332079    -0.55100
O648        O  0.04992301  0.94282425  0.56933596    -0.74400
C649        C  0.06364200  0.93020618  0.54572722     0.97900
O650        O  0.05814588  0.95631693  0.41285677    -0.63200
O651        O  0.39493544  0.92505598  0.45235521    -0.58000
O652        O  0.99296744  0.89514044  0.45451073    -0.94700
O653        O  0.43550272  0.88109172  0.47158888    -0.93200
O654        O  0.45385827  0.00512207  0.38995331    -0.93500
O655        O  0.02459938  0.54507462  0.36999004    -0.92300
C656        C  0.45767525  0.87117514  0.45790098     1.16800
H657        H  0.43050145  0.00762258  0.47300229     0.32700
H658        H  0.07256677  0.55309573  0.42978312     0.43600
H659        H  0.48303227  0.90694717  0.52587399     0.37100
H660        H  0.03945292  0.56585085  0.57091448     0.33600
H661        H  0.02380154  0.61644688  0.38168046     0.25400
H662        H  0.14435391  0.63753194  0.53311532     0.31300
H663        H  0.06924952  0.99552794  0.62031744     0.37200
H664        H  0.44515285  0.51751286  0.37917148     0.31700
H665        H  0.40305684  0.91445001  0.43264343     0.30500
H666        H  0.37453767  0.85937850  0.52305228     0.32200
H667        H  0.97539488  0.88722013  0.59118173     0.31200
H668        H  0.03158905  0.52338631  0.37178420     0.39100
H669        H  0.03541424  0.94308941  0.39924569     0.27900
H670        H  0.45655146  0.59348551  0.57764606     0.32200
H671        H  0.99751403  0.96878118  0.64544380     0.35000
H672        H  0.37115606  0.89962311  0.46321450     0.27600
H673        H  0.07439808  0.98515426  0.39977546     0.40500
H674        H  0.13628484  0.65511100  0.45802058     0.30500
H675        H  0.03981427  0.63370133  0.41832568     0.38200
H676        H  0.44623791  0.89727326  0.59113031     0.30000
H677        H  0.11777424  0.60074664  0.56336874     0.30100
H678        H  0.47295663  0.57127366  0.60144674     0.30300
C679        C  0.29193357  0.64010824  0.40824784     0.85800
C680        C  0.29933659  0.64927289  0.36697161    -0.54400
C681        C  0.33621867  0.66943198  0.35479693     0.08700
C682        C  0.36279115  0.68062145  0.38570363     0.19700
C683        C  0.31162402  0.61672651  0.41991493    -0.55200
C684        C  0.34863159  0.63816126  0.40844313     0.08800
C685        C  0.31638738  0.68532601  0.42127536    -0.54700
C686        C  0.35375535  0.70621087  0.40992601     0.09400
H687        H  0.27715281  0.64115848  0.34919121     0.13900
H688        H  0.39304300  0.69701937  0.37751733    -0.00300
H689        H  0.29787729  0.58682878  0.43730576     0.14200
H690        H  0.30540826  0.69969154  0.43797858     0.14000
C691        C  0.22335472  0.88078469  0.59362412     0.85800
C692        C  0.20272347  0.90412164  0.58498561    -0.54400
C693        C  0.16566723  0.88167387  0.59722125     0.08700
C694        C  0.15295444  0.83899908  0.61976229     0.19700
C695        C  0.21782350  0.87229644  0.63475520    -0.55200
C696        C  0.18146182  0.84960742  0.64860127     0.08800
C697        C  0.19778358  0.83631713  0.57951436    -0.54700
C698        C  0.16113178  0.81451176  0.59347013     0.09400
H699        H  0.21482565  0.93456651  0.56906994     0.13900
H700        H  0.12331754  0.82097494  0.63105161    -0.00300
H701        H  0.24093045  0.88123164  0.65174270     0.14200
H702        H  0.20741472  0.82358081  0.55954907     0.14000
Zr703      Zr  0.11020170  0.79038154  0.13946464     2.17500
O704        O  0.07842244  0.77474057  0.08364113    -0.52000
O705        O  0.05376749  0.75983965  0.17940955    -0.75200
O706        O  0.08419841  0.71680112  0.12483437    -0.82000
O707        O  0.12524254  0.90069712  0.13740853    -0.83800
O708        O  0.12281805  0.69574830  0.14506426    -0.79400
O709        O  0.08607736  0.83505653  0.11872259    -0.91000
O710        O  0.07091941  0.77278382  0.23653412    -0.77000
O711        O  0.12155052  0.75689334  0.19041935    -0.86500
O712        O  0.12449053  0.83541842  0.18691626    -0.86200
O713        O  0.16280594  0.78605158  0.11987574    -0.72900
O714        O  0.16436537  0.85816393  0.11599533    -0.85000
Zr715      Zr  0.24336473  0.86610472  0.19783827     2.26400
Zr716      Zr  0.17470613  0.75405460  0.17162654     2.06300
Zr717      Zr  0.17797565  0.90213702  0.16420662     2.10000
Zr718      Zr  0.13695499  0.80272794  0.23726619     1.78800
O719        O  0.20771945  0.96335283  0.11859901    -0.93900
O720        O  0.11082443  0.73265421  0.27064331    -0.41700
O721        O  0.19065736  0.87068396  0.21594449    -0.78300
O722        O  0.18950948  0.79777046  0.22066125    -0.97000
O723        O  0.22961454  0.82129219  0.15026491    -0.90300
O724        O  0.23169416  0.89938697  0.14678611    -0.93100
C725        C  0.04644721  0.75897865  0.21325400     1.00600
C726        C  0.09573645  0.87383027  0.12247498     1.13600
C727        C  0.09399806  0.68938329  0.12906955     1.04300
O728        O  0.15023460  0.69408847  0.21816044    -0.95300
O729        O  0.22732702  0.75463304  0.19550305    -0.91000
O730        O  0.26523752  0.81831893  0.21806100    -0.84200
C731        C  0.25576018  0.78000502  0.21218234     1.11000
O732        O  0.19451379  0.84539624  0.03978343    -0.97300
Zr733      Zr  0.21775250  0.85393345  0.09975791     1.88900
O734        O  0.30049788  0.89868305  0.15834620    -0.73900
O735        O  0.19770405  0.72137664  0.13241700    -0.53200
O736        O  0.22838473  0.80536698  0.06812582    -0.97800
O737        O  0.24494603  0.92135939  0.06156111    -0.55100
O738        O  0.28496574  0.88644075  0.10077468    -0.74400
C739        C  0.30903964  0.90045638  0.12465849     0.97900
O740        O  0.27900547  0.88928385  0.25102303    -0.63200
O741        O  0.15521577  0.93661274  0.20152594    -0.58000
O742        O  0.26263643  0.93596126  0.21902604    -0.94700
O743        O  0.22406090  0.95638425  0.19768656    -0.93200
O744        O  0.12164343  0.84284728  0.27566937    -0.93500
O745        O  0.15951733  0.81032024  0.29746617    -0.92300
C746        C  0.25156495  0.96245198  0.21569309     1.16800
H747        H  0.10442497  0.83975942  0.19295348     0.32700
H748        H  0.19517213  0.78539457  0.24129606     0.43600
H749        H  0.25312087  0.92778940  0.13975825     0.37100
H750        H  0.15627975  0.76807507  0.10032582     0.33600
H751        H  0.09534366  0.73238050  0.29125613     0.25400
H752        H  0.18413486  0.69079983  0.14192781     0.31300
H753        H  0.25487904  0.81485884  0.07097652     0.37200
H754        H  0.13137283  0.87073585  0.26140332     0.31700
H755        H  0.15573303  0.95911264  0.18501547     0.30500
H756        H  0.20777714  0.98651513  0.13043696     0.32200
H757        H  0.26673658  0.94253710  0.07387152     0.31200
H758        H  0.18700610  0.82424189  0.29329188     0.35200
H759        H  0.26726927  0.86378443  0.26894151     0.27900
H760        H  0.05312687  0.74893990  0.08993763     0.32200
H761        H  0.21667641  0.85548661  0.02274327     0.35000
H762        H  0.12824952  0.91511944  0.20754733     0.27600
H763        H  0.30398417  0.89449862  0.24383558     0.40500
H764        H  0.12277663  0.67748320  0.21634131     0.30500
H765        H  0.09235220  0.71212345  0.25507744     0.38200
H766        H  0.22643229  0.92987909  0.06417722     0.30000
H767        H  0.18755327  0.72162264  0.10881203     0.30100
H768        H  0.09158425  0.76536901  0.06803938     0.30300
C769        C  0.01593306  0.95533847  0.07022685     0.85800
C770        C  0.47615269  0.93881110  0.08605503    -0.54400
C771        C  0.46214903  0.96294770  0.07376951     0.08700
C772        C  0.48955830  0.50231162  0.04934017     0.19700
C773        C  0.01387993  0.95937821  0.02902463    -0.55200
C774        C  0.00082803  0.98453230  0.01680876     0.08800
C775        C  0.03816923  0.50153129  0.08273826    -0.54700
C776        C  0.02430672  0.52592343  0.07106141     0.09400
H777        H  0.46003029  0.90997339  0.10456776     0.13900
H778        H  0.47920888  0.52300584  0.03977848    -0.00300
H779        H  0.02691400  0.94922045  0.01013153     0.14200
H780        H  0.06270953  0.51409598  0.09819544     0.14000
C781        C  0.39391377  0.70122292  0.26301390     0.85800
C782        C  0.37167442  0.65473324  0.25456581    -0.54400
C783        C  0.33467677  0.63274952  0.26563081     0.08700
C784        C  0.32274250  0.66005272  0.28454697     0.19700
C785        C  0.37338228  0.72182941  0.24717373    -0.55200
C786        C  0.33614089  0.70017376  0.25782138     0.08800
C787        C  0.38611933  0.69951338  0.30392631    -0.54700
C788        C  0.34900210  0.67722766  0.31570066     0.09400
H789        H  0.38450206  0.64034950  0.24043190     0.13900
H790        H  0.29242131  0.64249758  0.29277447    -0.00300
H791        H  0.38718274  0.75278715  0.23160859     0.14200
H792        H  0.40818271  0.71657424  0.32153505     0.14000
C793        C  0.41413926  0.94454074  0.12306488    -0.27000
C794        C  0.42403093  0.95175195  0.08589612    -0.15100
C795        C  0.39646522  0.94370703  0.06154079     0.35600
C796        C  0.35970042  0.92818275  0.07488050    -0.26500
C797        C  0.34919551  0.91944559  0.11222744    -0.15700
C798        C  0.37704641  0.92767221  0.13659932     0.36600
N799        N  0.36762914  0.91741425  0.17487217    -0.89900
H800        H  0.43533170  0.95046355  0.14168501     0.17700
H801        H  0.33901044  0.92199716  0.05561903     0.17700
N802        N  0.40427633  0.94857978  0.02322701    -0.89000
H803        H  0.39168570  0.92747157  0.18882370     0.35100
H804        H  0.35136581  0.88404963  0.17978851     0.40200
H805        H  0.41574144  0.93050591  0.01704204     0.39800
H806        H  0.42367155  0.98074999  0.01480578     0.34700
C807        C  0.09557732  0.63802864  0.09218198    -0.27000
C808        C  0.07342109  0.64893611  0.11178361    -0.15100
C809        C  0.03378454  0.62092523  0.11411432     0.35600
C810        C  0.01800836  0.58205843  0.09824263    -0.26500
C811        C  0.04073432  0.57040260  0.08070557    -0.15700
C812        C  0.07971046  0.59961608  0.07621823     0.36600
N813        N  0.10305657  0.59006473  0.05533667    -0.89900
H814        H  0.12574153  0.65982855  0.08921231     0.17700
H815        H  0.48893529  0.56114202  0.09992756     0.17700
N816        N  0.00879953  0.62944866  0.13342392    -0.89000
H817        H  0.13124825  0.61457855  0.05506791     0.35100
H818        H  0.09583802  0.58946903  0.02868134     0.40200
H819        H  0.02325847  0.65751413  0.14600891     0.39800
H820        H  0.99406320  0.60478339  0.15421127     0.34700
C821        C  0.06281216  0.91201016  0.13257088    -0.27000
C822        C  0.07126020  0.88918431  0.10973115    -0.15100
C823        C  0.05721804  0.88283069  0.07529050     0.35600
C824        C  0.03788417  0.90252791  0.06340136    -0.26500
C825        C  0.03195031  0.92857121  0.08518670    -0.15700
C826        C  0.04236458  0.93040383  0.12128944     0.36600
N827        N  0.03314410  0.95202414  0.14623679    -0.89900
H828        H  0.07222013  0.91541750  0.15962015     0.17700
H829        H  0.02742716  0.89687308  0.03697660     0.17700
N830        N  0.06320549  0.85713202  0.05218343    -0.89000
H831        H  0.04422106  0.95207844  0.17102318     0.35100
H832        H  0.00404109  0.93441602  0.15142292     0.40200
H833        H  0.09203657  0.87267017  0.04561024     0.39800
H834        H  0.05080037  0.85520885  0.02787987     0.34700
C835        C  0.30161046  0.73566003  0.27226337    -0.27000
C836        C  0.31312099  0.71779860  0.24689587    -0.15100
C837        C  0.30687084  0.72182206  0.21036956     0.35600
C838        C  0.28949905  0.74383057  0.19962314    -0.26500
C839        C  0.27840220  0.76243116  0.22471809    -0.15700
C840        C  0.28418397  0.75797197  0.26152856     0.36600
N841        N  0.27169478  0.77522719  0.28786192    -0.89900
H842        H  0.30683192  0.73280280  0.30033741     0.17700
H843        H  0.28427753  0.74605864  0.17145256     0.17700
N844        N  0.31776668  0.70305161  0.18420007    -0.89000
H845        H  0.27811451  0.76918743  0.31364574     0.35100
H846        H  0.24246224  0.75880043  0.28840803     0.40200
H847        H  0.33637520  0.72732913  0.16446484     0.39800
H848        H  0.29385073  0.68139056  0.17182679     0.34700
C849        C  0.32376559  0.55969189  0.26370323    -0.27000
C850        C  0.31011911  0.58702544  0.25882956    -0.15100
C851        C  0.27610944  0.57205641  0.24296914     0.35600
C852        C  0.25764021  0.53145439  0.23026447    -0.26500
C853        C  0.27263355  0.50504841  0.23247376    -0.15700
C854        C  0.30572483  0.51916469  0.25052772     0.36600
N855        N  0.32112806  0.99237331  0.25363875    -0.89900
H856        H  0.34966599  0.57084444  0.27662477     0.17700
H857        H  0.23178883  0.52129603  0.21754946     0.17700
N858        N  0.26114579  0.59875571  0.23792829    -0.89000
H859        H  0.34442205  0.50709842  0.27072385     0.35100
H860        H  0.33109813  0.99189720  0.22777475     0.40200
H861        H  0.23426772  0.58261691  0.25106439     0.39800
H862        H  0.25870569  0.60312831  0.21033791     0.34700
C863        C  0.48279261  0.74225131  0.20043579    -0.27000
C864        C  0.00749753  0.74295313  0.22633248    -0.15100
C865        C  0.99511745  0.72998033  0.26318424     0.35600
C866        C  0.45889746  0.71791285  0.27326441    -0.26500
C867        C  0.43478738  0.72104232  0.24944996    -0.15700
C868        C  0.44694911  0.73176009  0.21197958     0.36600
N869        N  0.42365560  0.73106773  0.18439660    -0.89900
H870        H  0.49178653  0.75172993  0.17197957     0.17700
H871        H  0.44946064  0.70489796  0.30101196     0.17700
N872        N  0.01880708  0.72697144  0.28877722    -0.89000
H873        H  0.42023496  0.75687383  0.18540006     0.35100
H874        H  0.39786586  0.70200100  0.18721765     0.40200
H875        H  0.02300042  0.70284124  0.28184065     0.39800
H876        H  0.00564038  0.71748100  0.31488430     0.34700
C877        C  0.18405983  0.55861548  0.41779659    -0.27000
C878        C  0.17401720  0.56802386  0.45039613    -0.15100
C879        C  0.20276540  0.59666003  0.47104584     0.35600
C880        C  0.24014172  0.61970673  0.45677991    -0.26500
C881        C  0.25032221  0.61400121  0.42235506    -0.15700
C882        C  0.22204733  0.57971018  0.40445566     0.36600
N883        N  0.23179680  0.56583424  0.37324010    -0.89900
H884        H  0.16229015  0.53512764  0.40254503     0.17700
H885        H  0.26130003  0.64147973  0.47344212     0.17700
N886        N  0.19415471  0.60174322  0.50710669    -0.89000
H887        H  0.20786894  0.54068982  0.36338462     0.35100
H888        H  0.24809025  0.55359477  0.38145691     0.40200
H889        H  0.20404086  0.63407558  0.50866588     0.39800
H890        H  0.20874951  0.59335061  0.52455530     0.34700
C891        C  0.41085114  0.79406082  0.47061983    -0.27000
C892        C  0.43819370  0.82746028  0.44599962    -0.15100
C893        C  0.43971505  0.81997820  0.40955174     0.35600
C894        C  0.41258317  0.77979365  0.39831582    -0.26500
C895        C  0.38357302  0.74749253  0.42272019    -0.15700
C896        C  0.38391966  0.75422905  0.45955487     0.36600
N897        N  0.35680318  0.72058646  0.48568393    -0.89900
H898        H  0.40961936  0.79978281  0.49862917     0.17700
H899        H  0.41304044  0.77438579  0.37014326     0.17700
N900        N  0.46747965  0.85366404  0.38388530    -0.89000
H901        H  0.36081995  0.73070703  0.51159787     0.35100
H902        H  0.36147432  0.69550281  0.48609757     0.40200
H903        H  0.46207558  0.87820109  0.38195992     0.39800
H904        H  0.46483125  0.84298897  0.35823819     0.34700
C905        C  0.40600141  0.65335871  0.43760571    -0.27000
C906        C  0.37424911  0.62473155  0.42036994    -0.15100
C907        C  0.36800810  0.58464923  0.41398710     0.35600
C908        C  0.39370075  0.57378629  0.42483843    -0.26500
C909        C  0.42526864  0.60207897  0.44266602    -0.15700
C910        C  0.43173317  0.64268717  0.44881489     0.36600
N911        N  0.46411011  0.67410388  0.46552120    -0.89900
H912        H  0.41088341  0.68439390  0.44241768     0.17700
H913        H  0.38855080  0.54264567  0.41994929     0.17700
N914        N  0.33589414  0.55521291  0.39612832    -0.89000
H915        H  0.98092488  0.70223004  0.43987028     0.35100
H916        H  0.98580112  0.66653765  0.46470776     0.40200
H917        H  0.34526646  0.54833444  0.37282931     0.39800
H918        H  0.32035918  0.52685809  0.41325713     0.34700
C919        C  0.32509323  0.90676529  0.57706001    -0.27000
C920        C  0.34410994  0.94802355  0.55881344    -0.15100
C921        C  0.32372776  0.96745422  0.55102690     0.35600
C922        C  0.28528201  0.94571175  0.56205217    -0.26500
C923        C  0.26548464  0.90370437  0.58026479    -0.15700
C924        C  0.28667315  0.88435904  0.58737979     0.36600
N925        N  0.27047811  0.84158606  0.60424156    -0.89900
H926        H  0.34021247  0.89095495  0.58253435     0.17700
H927        H  0.27163665  0.96268420  0.55553084     0.17700
N928        N  0.34086269  0.00843376  0.53051593    -0.89000
H929        H  0.25101293  0.81960828  0.58811711     0.35100
H930        H  0.25791423  0.83809989  0.62975648     0.40200
H931        H  0.35398967  0.50797482  0.50672187     0.39800
H932        H  0.36346898  0.53090708  0.54614928     0.34700
C933        C  0.07421066  0.71961441  0.55850910    -0.27000
C934        C  0.08021664  0.68641755  0.56756842    -0.15100
C935        C  0.11055753  0.69486855  0.58841309     0.35600
C936        C  0.13631632  0.73667810  0.59651047    -0.26500
C937        C  0.13207000  0.77055411  0.58509093    -0.15700
C938        C  0.09979777  0.76167017  0.56721987     0.36600
N939        N  0.09396843  0.79557922  0.55649107    -0.89900
H940        H  0.05102824  0.71340624  0.54257167     0.17700
H941        H  0.16001394  0.74277854  0.61161430     0.17700
N942        N  0.11556438  0.66092329  0.60110232    -0.89000
H943        H  0.06858811  0.78358914  0.54449534     0.35100
H944        H  0.11500572  0.81577396  0.53642734     0.40200
H945        H  0.11466687  0.65918917  0.62929244     0.39800
H946        H  0.14234157  0.66908846  0.59164138     0.34700
C947        C  0.11521901  0.91775165  0.53484365    -0.27000
C948        C  0.08664631  0.91312648  0.55858021    -0.15100
C949        C  0.08311607  0.89612892  0.59468762     0.35600
C950        C  0.10916549  0.88622954  0.60669604    -0.26500
C951        C  0.13876556  0.89275800  0.58334782    -0.15700
C952        C  0.14109976  0.90754310  0.54656964     0.36600
N953        N  0.16967028  0.91233806  0.52107329    -0.89900
H954        H  0.11814262  0.93060380  0.50706126     0.17700
H955        H  0.10651011  0.87399552  0.63463515     0.17700
N956        N  0.05300784  0.88853353  0.61925482    -0.89000
H957        H  0.16749114  0.92378834  0.49538288     0.35100
H958        H  0.16544172  0.88217859  0.51874724     0.40200
H959        H  0.06457928  0.90605705  0.64128085     0.39800
H960        H  0.03763466  0.85603591  0.62868684     0.34700
C961        C  0.42179675  0.86134348  0.89577268    -0.27000
C962        C  0.43858674  0.83687298  0.89507652    -0.15100
C963        C  0.47377320  0.85346384  0.90972110     0.35600
C964        C  0.49188063  0.89418486  0.92207008    -0.26500
C965        C  0.47636523  0.91988591  0.91990811    -0.15700
C966        C  0.44040093  0.90264079  0.90744985     0.36600
N967        N  0.42349510  0.92764464  0.90500265    -0.89900
H968        H  0.39438487  0.84898222  0.88574783     0.17700
H969        H  0.02090139  0.90857192  0.93024934     0.17700
N970        N  0.49249809  0.83060162  0.91169056    -0.89000
H971        H  0.39673775  0.91006748  0.89568023     0.35100
H972        H  0.43967106  0.95351361  0.88557704     0.40200
H973        H  0.49672632  0.82417042  0.88571040     0.39800
H974        H  0.97692713  0.80415228  0.92627601     0.34700
C975        C  0.14695754  0.57507560  0.86627119    -0.27000
C976        C  0.17494457  0.58738787  0.89067937    -0.15100
C977        C  0.16563258  0.58757670  0.92739251     0.35600
C978        C  0.12875400  0.57307534  0.93912362    -0.26500
C979        C  0.09995296  0.55719805  0.91539714    -0.15700
C980        C  0.10996141  0.56076069  0.87814131     0.36600
N981        N  0.08247629  0.54947652  0.85222879    -0.89900
H982        H  0.15360439  0.57634325  0.83772797     0.17700
H983        H  0.12371822  0.57468238  0.96723241     0.17700
N984        N  0.19329734  0.60212372  0.95335753    -0.89000
H985        H  0.09136906  0.57642293  0.83395844     0.35100
H986        H  0.08147045  0.52559011  0.83797993     0.40200
H987        H  0.18497368  0.57704470  0.97354941     0.39800
H988        H  0.19397857  0.62731380  0.96515973     0.34700
C989        C  0.45943233  0.56137643  0.93962852    -0.27000
C990        C  0.47751606  0.55109148  0.91378205    -0.15100
C991        C  0.47690054  0.56182402  0.87674011     0.35600
C992        C  0.45764922  0.58179145  0.86633888    -0.26500
C993        C  0.43992708  0.59252463  0.89203802    -0.15700
C994        C  0.44069474  0.58224500  0.92908640     0.36600
N995        N  0.42229739  0.59269345  0.95570778    -0.89900
H996        H  0.95158894  0.54053760  0.96605302     0.17700
H997        H  0.45646473  0.58914809  0.83789418     0.17700
N998        N  0.49617122  0.05055285  0.84762363    -0.89000
H999        H  0.42590566  0.58344921  0.98169401     0.35100
H1000       H  0.39353815  0.57456342  0.95249849     0.40200
H1001       H  0.49346635  0.06060344  0.82157563     0.39800
H1002       H  0.48247824  0.01725088  0.84928142     0.34700
C1003       C  0.26024885  0.76591789  0.74761569    -0.27000
C1004       C  0.24173623  0.72543904  0.76709933    -0.15100
C1005       C  0.20239699  0.70327434  0.77431189     0.35600
C1006       C  0.18293886  0.72311252  0.76317398    -0.26500
C1007       C  0.20190464  0.76493820  0.74519878    -0.15700
C1008       C  0.24102847  0.78564596  0.73672332     0.36600
N1009       N  0.26183494  0.82771329  0.71787520    -0.89900
H1010       H  0.29031336  0.78306578  0.74142616     0.17700
H1011       H  0.15308244  0.70558304  0.76946102     0.17700
N1012       N  0.18256555  0.66185130  0.79467127    -0.89000
H1013       H  0.28242481  0.84804582  0.73424586     0.35100
H1014       H  0.27526958  0.82649677  0.69440618     0.40200
H1015       H  0.18289978  0.64010969  0.77846331     0.39800
H1016       H  0.15433851  0.65131257  0.79998262     0.34700
C1017       C  0.03941512  0.78482520  0.77969909    -0.27000
C1018       C  0.51162924  0.74531694  0.76773566    -0.15100
C1019       C  0.02042152  0.71948759  0.75153945     0.35600
C1020       C  0.05783578  0.73676663  0.73943026    -0.26500
C1021       C  0.08621725  0.77737076  0.74748047    -0.15700
C1022       C  0.07692475  0.80164945  0.76777971     0.36600
N1023       N  0.10550209  0.84270676  0.77735448    -0.89900
H1024       H  0.53327610  0.80588391  0.78960963     0.17700
H1025       H  0.06496985  0.71778657  0.72422343     0.17700
N1026       N  0.99336755  0.67646760  0.74393555    -0.89000
H1027       H  0.10425633  0.84176620  0.80550765     0.35100
H1028       H  0.09943252  0.86526748  0.76722727     0.40200
H1029       H  0.46769107  0.66554974  0.75409876     0.39800
H1030       H  0.00168673  0.65651760  0.75554741     0.34700
C1031       C  0.20433772  0.93283056  0.73675897    -0.27000
C1032       C  0.19794605  0.89732437  0.75946682    -0.15100
C1033       C  0.20507301  0.90199434  0.79624229     0.35600
C1034       C  0.22248384  0.94280166  0.80842801    -0.26500
C1035       C  0.23143379  0.97890203  0.78517123    -0.15700
C1036       C  0.22102057  0.97369272  0.74924943     0.36600
N1037       N  0.23383544  0.51093879  0.72299877    -0.89900
H1038       H  0.19815698  0.92917446  0.70872280     0.17700
H1039       H  0.22961579  0.94660802  0.83622910     0.17700
N1040       N  0.19450785  0.86525642  0.82113448    -0.89000
H1041       H  0.22598433  0.50189309  0.69714843     0.35100
H1042       H  0.26308830  0.53045069  0.72095758     0.40200
H1043       H  0.16532891  0.84517449  0.82225674     0.39800
H1044       H  0.20132532  0.87417502  0.84719382     0.34700
Zr1045     Zr  0.77458060  0.12337424  0.80299507     2.17500
O1046       O  0.74667799  0.10981175  0.74518155    -0.52000
O1047       O  0.71888376  0.09580885  0.84331514    -0.75200
O1048       O  0.74561333  0.04841827  0.79200805    -0.82000
O1049       O  0.79510557  0.23510417  0.79145778    -0.83800
O1050       O  0.78389204  0.02666787  0.81234142    -0.79400
O1051       O  0.74951798  0.16688649  0.78349496    -0.91000
O1052       O  0.73812168  0.11223507  0.89931089    -0.77000
O1053       O  0.78642419  0.09193825  0.85473863    -0.86500
O1054       O  0.79209347  0.17223034  0.84773657    -0.86200
O1055       O  0.82529831  0.11575849  0.78359373    -0.72900
O1056       O  0.82863924  0.18928458  0.77662203    -0.85000
Zr1057     Zr  0.90982597  0.19957583  0.85712652     2.26400
Zr1058     Zr  0.83774492  0.08584142  0.83619902     2.06300
Zr1059     Zr  0.84620894  0.23700102  0.82214391     2.10000
Zr1060     Zr  0.80421228  0.14082343  0.89917212     1.78800
O1061       O  0.87992363  0.29353273  0.77286345    -0.93900
O1062       O  0.77469732  0.07203362  0.93568307    -0.41700
O1063       O  0.85865656  0.20702449  0.87513270    -0.78300
O1064       O  0.85536630  0.13321775  0.88275037    -0.97000
O1065       O  0.89270842  0.15139237  0.81166989    -0.90300
O1066       O  0.89805611  0.23097103  0.80495116    -0.93100
C1067       C  0.71281440  0.09795027  0.87683002     1.00600
C1068       C  0.76292100  0.20730612  0.78109007     1.13600
C1069       C  0.75451385  0.02032240  0.79741043     1.04300
O1070       O  0.80842571  0.02529713  0.88246597    -0.95300
O1071       O  0.88652828  0.08213226  0.86488294    -0.91000
O1072       O  0.92887257  0.14933932  0.87912228    -0.84200
C1073       C  0.91687889  0.10926490  0.87820673     1.11000
O1074       O  0.85200139  0.16687246  0.70241976    -0.97300
Zr1075     Zr  0.88011876  0.18218239  0.76007340     1.88900
O1076       O  0.96524046  0.22959723  0.81515624    -0.73900
O1077       O  0.86293662  0.05657157  0.79578669    -0.53200
O1078       O  0.89269942  0.13771938  0.72456426    -0.97800
O1079       O  0.90476713  0.24866741  0.72109202    -0.55100
O1080       O  0.94694277  0.21350107  0.75853736    -0.74400
C1081       C  0.97182484  0.22843872  0.78149660     0.97900
O1082       O  0.95112605  0.22482358  0.90629489    -0.63200
O1083       O  0.82533752  0.27753497  0.85310825    -0.58000
O1084       O  0.92895968  0.27012286  0.87833173    -0.94700
O1085       O  0.89232590  0.29243542  0.85515162    -0.93200
O1086       O  0.79254223  0.18658242  0.93373579    -0.93500
O1087       O  0.82916122  0.14846973  0.95829586    -0.92300
C1088       C  0.91898299  0.29768223  0.87422029     1.16800
H1089       H  0.77274194  0.17782227  0.85353054     0.32700
H1090       H  0.86111063  0.12171538  0.90392768     0.43600
H1091       H  0.91990222  0.25866248  0.79693016     0.37100
H1092       H  0.81763161  0.09647156  0.76495832     0.33600
H1093       H  0.75833986  0.07335119  0.95444135     0.25400
H1094       H  0.85137325  0.02633551  0.80564677     0.31300
H1095       H  0.91552252  0.15812720  0.70875474     0.37200
H1096       H  0.79862678  0.21118325  0.91623717     0.31700
H1097       H  0.83092323  0.30166388  0.83525401     0.30500
H1098       H  0.90162421  0.31698559  0.78364227     0.32200
H1099       H  0.91766526  0.24557609  0.70001858     0.31200
H1100       H  0.85643823  0.16146855  0.95316677     0.35200
H1101       H  0.93752967  0.20282810  0.92701600     0.27900
H1102       H  0.72074339  0.08486582  0.75036485     0.32200
H1103       H  0.82873351  0.16699772  0.70619549     0.35000
H1104       H  0.79763803  0.25919716  0.85575749     0.27600
H1105       H  0.97289172  0.22274522  0.89933200     0.40500
H1106       H  0.81473564  0.03827331  0.90561519     0.30500
H1107       H  0.75701771  0.05079148  0.92004570     0.38200
H1108       H  0.92538805  0.27112509  0.73369313     0.30000
H1109       H  0.85115006  0.05513432  0.77286934     0.30100
H1110       H  0.75989499  0.09923470  0.73118305     0.30300
C1111       C  0.68306765  0.28987628  0.73283932     0.85800
C1112       C  0.64035947  0.26797994  0.74144937    -0.54400
C1113       C  0.62692147  0.29369037  0.73222386     0.08700
C1114       C  0.65687449  0.33847565  0.71472528     0.19700
C1115       C  0.68897498  0.30494330  0.69252491    -0.55200
C1116       C  0.67574730  0.33060570  0.68306360     0.08800
C1117       C  0.69996593  0.33108480  0.75185106    -0.54700
C1118       C  0.68638425  0.35649622  0.74263750     0.09400
H1119       H  0.62211040  0.23609527  0.75489111     0.13900
H1120       H  0.64572551  0.35890247  0.70676741    -0.00300
H1121       H  0.70353909  0.29704686  0.67312538     0.14200
H1122       H  0.72166140  0.33972612  0.77050861     0.14000
C1123       C  0.55916562  0.03431769  0.92826256     0.85800
C1124       C  0.53718642  0.49018302  0.91733180    -0.54400
C1125       C  0.99948735  0.46552799  0.92821217     0.08700
C1126       C  0.98697966  0.49094638  0.94963667     0.19700
C1127       C  0.53894385  0.05550573  0.91344043    -0.55200
C1128       C  0.00267888  0.03519689  0.92320238     0.08800
C1129       C  0.55021838  0.02793227  0.96929643    -0.54700
C1130       C  0.51298045  0.00530536  0.98004053     0.09400
H1131       H  0.55074522  0.47760340  0.90178645     0.13900
H1132       H  0.95665857  0.47278714  0.95842948    -0.00300
H1133       H  0.55319892  0.08574826  0.89649646     0.14200
H1134       H  0.57042823  0.03464836  0.98906027     0.14000
Zr1135     Zr  0.97738000  0.05089980  0.52945872     2.17500
O1136       O  0.95320589  0.06620987  0.58262897    -0.52000
O1137       O  0.95630407  0.08721335  0.48895122    -0.75200
O1138       O  0.52363761  0.12297097  0.54981429    -0.82000
O1139       O  0.88939613  0.44048799  0.52776577    -0.83800
O1140       O  0.58177925  0.13567469  0.53595768    -0.79400
O1141       O  0.90990939  0.50639971  0.54585289    -0.91000
O1142       O  0.96373860  0.07432635  0.43140193    -0.77000
O1143       O  0.52546985  0.08480618  0.48157802    -0.86500
O1144       O  0.95330646  0.50997068  0.47943558    -0.86200
O1145       O  0.52913030  0.04796567  0.55174415    -0.72900
O1146       O  0.96337082  0.48148871  0.54895795    -0.85000
Zr1147     Zr  0.53858070  0.46879840  0.46921166     2.26400
Zr1148     Zr  0.57623850  0.07985818  0.50235624     2.06300
Zr1149     Zr  0.94061683  0.44083194  0.49842137     2.10000
Zr1150     Zr  0.00054015  0.04182663  0.43139387     1.78800
O1151       O  0.90245346  0.37540865  0.53862230    -0.93900
O1152       O  0.54443130  0.11524733  0.40201701    -0.41700
O1153       O  0.98698465  0.47194974  0.44864594    -0.78300
O1154       O  0.55360588  0.04040854  0.45115015    -0.97000
O1155       O  0.56170819  0.00978932  0.52138115    -0.90300
O1156       O  0.99194188  0.43753197  0.51930881    -0.93100
C1157       C  0.95159453  0.08852183  0.45506567     1.00600
C1158       C  0.88405792  0.46707947  0.54265831     1.13600
C1159       C  0.55980374  0.14542140  0.55044593     1.04300
O1160       O  0.61006890  0.14388255  0.45989250    -0.95300
O1161       O  0.62797491  0.07716526  0.47698697    -0.91000
O1162       O  0.60740055  0.01210322  0.45714696    -0.84200
C1163       C  0.63365136  0.05041532  0.46267495     1.11000
O1164       O  0.49971144  0.49081825  0.62709724    -0.97300
Zr1165     Zr  0.51592966  0.47838543  0.56787025     1.88900
O1166       O  0.56151361  0.43478053  0.51013440    -0.73900
O1167       O  0.62705116  0.10169244  0.54197617    -0.53200
O1168       O  0.56587892  0.01491739  0.60728780    -0.97800
O1169       O  0.97048563  0.41180957  0.60370327    -0.55100
O1170       O  0.54872557  0.44121483  0.56811318    -0.74400
C1171       C  0.56340907  0.42983678  0.54442114     0.97900
O1172       O  0.55632822  0.45384697  0.41161061    -0.63200
O1173       O  0.89391443  0.42098419  0.45417215    -0.58000
O1174       O  0.49299934  0.39547917  0.45268675    -0.94700
O1175       O  0.93571915  0.38183020  0.47138296    -0.93200
O1176       O  0.95165758  0.49852949  0.39164312    -0.93500
O1177       O  0.52682836  0.04365500  0.37227027    -0.92300
C1178       C  0.95782856  0.37175771  0.45800812     1.16800
H1179       H  0.92995993  0.50672942  0.47308581     0.32700
H1180       H  0.57298782  0.05294760  0.43156162     0.43600
H1181       H  0.98469402  0.40833242  0.52602444     0.37100
H1182       H  0.53800830  0.06376389  0.57258578     0.33600
H1183       H  0.52977192  0.11957696  0.38380550     0.25400
H1184       H  0.64315709  0.13320177  0.53702235     0.31300
H1185       H  0.57017434  0.49362512  0.61890142     0.37200
H1186       H  0.92888755  0.00036836  0.40205281     0.31700
H1187       H  0.90555049  0.41811243  0.43199165     0.30500
H1188       H  0.87885006  0.35869688  0.52671719     0.32200
H1189       H  0.47854915  0.39103830  0.59782133     0.31200
H1190       H  0.52759885  0.01731790  0.37386175     0.39100
H1191       H  0.53438048  0.44449517  0.39714608     0.27900
H1192       H  0.95623280  0.09432306  0.57609158     0.32200
H1193       H  0.50339451  0.47230180  0.64472340     0.35000
H1194       H  0.87361623  0.39134157  0.46276960     0.27600
H1195       H  0.57560563  0.48206162  0.39913126     0.40500
H1196       H  0.63329855  0.16316669  0.47145271     0.30500
H1197       H  0.54769335  0.13494757  0.42024041     0.38200
H1198       H  0.94587210  0.40473677  0.59552328     0.30000
H1199       H  0.61521923  0.09655827  0.56663130     0.30100
H1200       H  0.97126448  0.07143897  0.60107200     0.30300
C1201       C  0.79210277  0.13879653  0.41108371     0.85800
C1202       C  0.79921561  0.14945767  0.36981078    -0.54400
C1203       C  0.83598862  0.17005346  0.35721440     0.08700
C1204       C  0.86282529  0.18064570  0.38784608     0.19700
C1205       C  0.81227617  0.11550994  0.42123611    -0.55200
C1206       C  0.84929571  0.13774456  0.40953336     0.08800
C1207       C  0.81637280  0.18340964  0.42525080    -0.54700
C1208       C  0.85360375  0.20507584  0.41333208     0.09400
H1209       H  0.77689772  0.14162250  0.35225619     0.13900
H1210       H  0.89304861  0.19764481  0.37934299    -0.00300
H1211       H  0.79890678  0.08523896  0.43806999     0.14200
H1212       H  0.80533624  0.19708766  0.44271061     0.14000
C1213       C  0.72392473  0.38081025  0.59027750     0.85800
C1214       C  0.70292954  0.40351004  0.58092099    -0.54400
C1215       C  0.66627600  0.38166371  0.59441644     0.08700
C1216       C  0.65428511  0.34008770  0.61836029     0.19700
C1217       C  0.71974984  0.37464019  0.63145397    -0.55200
C1218       C  0.68382595  0.35234020  0.64621893     0.08800
C1219       C  0.69783037  0.33522174  0.57809546    -0.54700
C1220       C  0.66150120  0.31397401  0.59312074     0.09400
H1221       H  0.71449557  0.43302832  0.56370422     0.13900
H1222       H  0.62500565  0.32268210  0.63060853    -0.00300
H1223       H  0.74340767  0.38433363  0.64784919     0.14200
H1224       H  0.70676838  0.32146329  0.55848953     0.14000
Zr1225     Zr  0.61035985  0.29088251  0.13915337     2.17500
O1226       O  0.58495892  0.28052528  0.08009177    -0.52000
O1227       O  0.55288243  0.25909951  0.17789083    -0.75200
O1228       O  0.58376649  0.21721709  0.12411791    -0.82000
O1229       O  0.62556190  0.40143489  0.13887585    -0.83800
O1230       O  0.62441507  0.19771373  0.14127172    -0.79400
O1231       O  0.58510791  0.33517713  0.12173017    -0.91000
O1232       O  0.56972127  0.27091086  0.23519592    -0.77000
O1233       O  0.62102180  0.25662752  0.18986882    -0.86500
O1234       O  0.62419964  0.33533014  0.18704909    -0.86200
O1235       O  0.66328269  0.28695122  0.11991206    -0.72900
O1236       O  0.66475285  0.35907751  0.11700477    -0.85000
Zr1237     Zr  0.74257394  0.36591652  0.19962256     2.26400
Zr1238     Zr  0.67440730  0.25417901  0.17150774     2.06300
Zr1239     Zr  0.67795739  0.40243566  0.16548102     2.10000
Zr1240     Zr  0.63571394  0.30165282  0.23724072     1.78800
O1241       O  0.70657583  0.46263227  0.11888665    -0.93900
O1242       O  0.61060073  0.23094281  0.26901691    -0.41700
O1243       O  0.68959442  0.37005548  0.21720048    -0.78300
O1244       O  0.68858369  0.29712130  0.22111535    -0.97000
O1245       O  0.72905120  0.32194431  0.15156091    -0.90300
O1246       O  0.73165741  0.39975696  0.14850946    -0.93100
C1247       C  0.54538024  0.25762765  0.21182171     1.00600
C1248       C  0.59542934  0.37424804  0.12501510     1.13600
C1249       C  0.59476314  0.19071020  0.12646436     1.04300
O1250       O  0.64591348  0.19504099  0.21916023    -0.95300
O1251       O  0.72755447  0.25432402  0.19329646    -0.91000
O1252       O  0.76368203  0.31676891  0.21838869    -0.84200
C1253       C  0.75511042  0.27908780  0.21118387     1.11000
O1254       O  0.69281572  0.34691619  0.04193079    -0.97300
Zr1255     Zr  0.71824526  0.35521732  0.10091061     1.88900
O1256       O  0.80041713  0.40000278  0.16095450    -0.73900
O1257       O  0.70101021  0.22349184  0.13439708    -0.53200
O1258       O  0.73292714  0.31043030  0.06828152    -0.97800
O1259       O  0.74617669  0.42292898  0.06316738    -0.55100
O1260       O  0.78528620  0.38782519  0.10320381    -0.74400
C1261       C  0.80917595  0.40202412  0.12725122     0.97900
O1262       O  0.77432639  0.38443964  0.25535288    -0.63200
O1263       O  0.65542195  0.43529030  0.20494469    -0.58000
O1264       O  0.76189039  0.43643028  0.22027109    -0.94700
O1265       O  0.72524961  0.45858779  0.19667453    -0.93200
O1266       O  0.61816932  0.33895999  0.27688824    -0.93500
O1267       O  0.65696468  0.31103050  0.29794387    -0.92300
C1268       C  0.75184765  0.46386633  0.21580155     1.16800
H1269       H  0.60398537  0.33942596  0.19308668     0.32700
H1270       H  0.69399007  0.28445118  0.24174065     0.43600
H1271       H  0.75314530  0.42820768  0.14182470     0.37100
H1272       H  0.65721420  0.26951666  0.10001370     0.33600
H1273       H  0.59673632  0.23059212  0.29105575     0.25400
H1274       H  0.68724194  0.19270358  0.14319802     0.31300
H1275       H  0.75530697  0.33076578  0.05193122     0.37200
H1276       H  0.60021894  0.34350979  0.26386838     0.31700
H1277       H  0.65749589  0.45952883  0.18963238     0.30500
H1278       H  0.69772799  0.48128733  0.12603066     0.32200
H1279       H  0.76668476  0.44424334  0.07665657     0.31200
H1280       H  0.68400291  0.32172240  0.29462906     0.35200
H1281       H  0.76161362  0.35761071  0.27176888     0.27900
H1282       H  0.55917818  0.25498879  0.08391979     0.32200
H1283       H  0.71393447  0.35493595  0.02415671     0.35000
H1284       H  0.62813480  0.41441437  0.20951826     0.27600
H1285       H  0.79968448  0.39016452  0.24925117     0.40500
H1286       H  0.66532130  0.20262171  0.23657274     0.30500
H1287       H  0.59075454  0.21093526  0.25418345     0.38200
H1288       H  0.72696969  0.43055712  0.06424072     0.30000
H1289       H  0.69262704  0.22447994  0.10998048     0.30100
H1290       H  0.59923993  0.27144116  0.06581158     0.30300
C1291       C  0.51552935  0.45497458  0.07275933     0.85800
C1292       C  0.97527187  0.43791558  0.08775051    -0.54400
C1293       C  0.96151349  0.46233859  0.07547581     0.08700
C1294       C  0.98978220  0.00270284  0.04740734     0.19700
C1295       C  0.51437689  0.45955362  0.03140067    -0.55200
C1296       C  0.50119748  0.48451841  0.01895563     0.08800
C1297       C  0.53923141  0.00264744  0.07981655    -0.54700
C1298       C  0.52506345  0.02683615  0.06851237     0.09400
H1299       H  0.95899503  0.40907901  0.10623114     0.13900
H1300       H  0.97929428  0.02331349  0.03803684    -0.00300
H1301       H  0.52774081  0.44958930  0.01269725     0.14200
H1302       H  0.56428302  0.01560627  0.09453676     0.14000
C1303       C  0.89294044  0.20041292  0.26500300     0.85800
C1304       C  0.87032353  0.15362110  0.25730940    -0.54400
C1305       C  0.83336720  0.13219005  0.26844544     0.08700
C1306       C  0.82186575  0.16017859  0.28688688     0.19700
C1307       C  0.87266618  0.22102495  0.24874209    -0.55200
C1308       C  0.83548194  0.19997497  0.25954633     0.08800
C1309       C  0.88538362  0.19963236  0.30587412    -0.54700
C1310       C  0.84835294  0.17772312  0.31790510     0.09400
H1311       H  0.88276101  0.13867604  0.24339749     0.13900
H1312       H  0.79154008  0.14290949  0.29515630    -0.00300
H1313       H  0.88671889  0.25159706  0.23250379     0.14200
H1314       H  0.90744168  0.21712237  0.32333700     0.14000
C1315       C  0.91389647  0.44418343  0.12536624    -0.27000
C1316       C  0.92374490  0.45197541  0.08811369    -0.15100
C1317       C  0.89637751  0.44542826  0.06398617     0.35600
C1318       C  0.85996502  0.43115145  0.07754399    -0.26500
C1319       C  0.84935824  0.42131578  0.11485930    -0.15700
C1320       C  0.87689654  0.42778292  0.13905555     0.36600
N1321       N  0.86712977  0.41588179  0.17718140    -0.89900
H1322       H  0.93492201  0.44899604  0.14385175     0.17700
H1323       H  0.83945282  0.42622551  0.05841273     0.17700
N1324       N  0.90383082  0.44999986  0.02564183    -0.89000
H1325       H  0.89087927  0.42379821  0.19102503     0.35100
H1326       H  0.84969445  0.38252116  0.18096700     0.40200
H1327       H  0.91428584  0.43095916  0.01934311     0.39800
H1328       H  0.92388925  0.48190423  0.01711738     0.34700
C1329       C  0.59615400  0.14012054  0.08809897    -0.27000
C1330       C  0.57417573  0.15034317  0.10888168    -0.15100
C1331       C  0.53466778  0.12123166  0.11281556     0.35600
C1332       C  0.51886915  0.08247961  0.09672472    -0.26500
C1333       C  0.54147152  0.07144721  0.07805547    -0.15700
C1334       C  0.58033261  0.10131749  0.07262041     0.36600
N1335       N  0.60366500  0.09198477  0.05146498    -0.89900
H1336       H  0.62619805  0.16257667  0.08416580     0.17700
H1337       H  0.98822136  0.06021087  0.09750248     0.17700
N1338       N  0.50991171  0.12842647  0.13413905    -0.89000
H1339       H  0.63182843  0.11665209  0.05099446     0.35100
H1340       H  0.59619777  0.09131950  0.02490637     0.40200
H1341       H  0.52453153  0.15610901  0.14719889     0.39800
H1342       H  0.49625035  0.10325652  0.15468642     0.34700
C1343       C  0.56304392  0.41279521  0.13534151    -0.27000
C1344       C  0.57113655  0.38967255  0.11256881    -0.15100
C1345       C  0.55733764  0.38338541  0.07810015     0.35600
C1346       C  0.53754696  0.40245531  0.06635557    -0.26500
C1347       C  0.53158927  0.42849221  0.08806581    -0.15700
C1348       C  0.54257014  0.43109677  0.12405308     0.36600
N1349       N  0.53410152  0.45356462  0.14876631    -0.89900
H1350       H  0.57286934  0.41664233  0.16223472     0.17700
H1351       H  0.52695613  0.39656092  0.03999606     0.17700
N1352       N  0.56437510  0.35869514  0.05470163    -0.89000
H1353       H  0.54535508  0.45384133  0.17349574     0.35100
H1354       H  0.50503282  0.43658574  0.15412053     0.40200
H1355       H  0.59331874  0.37499717  0.04844358     0.39800
H1356       H  0.55224428  0.35691585  0.03025515     0.34700
C1357       C  0.79741746  0.23174890  0.27282249    -0.27000
C1358       C  0.81266182  0.21757747  0.24755523    -0.15100
C1359       C  0.81006564  0.22509983  0.21049413     0.35600
C1360       C  0.79217141  0.24638214  0.19920976    -0.26500
C1361       C  0.77751721  0.26143813  0.22431098    -0.15700
C1362       C  0.77990900  0.25378888  0.26152037     0.36600
N1363       N  0.76402897  0.26776759  0.28762155    -0.89900
H1364       H  0.79991242  0.22641796  0.30131079     0.17700
H1365       H  0.78960413  0.25109622  0.17062964     0.17700
N1366       N  0.82536232  0.21073471  0.18428171    -0.89000
H1367       H  0.76852055  0.26011602  0.31377603     0.35100
H1368       H  0.73500997  0.25051215  0.28578863     0.40200
H1369       H  0.84523458  0.23732807  0.16702047     0.39800
H1370       H  0.80373280  0.19002371  0.16900047     0.34700
C1371       C  0.82023710  0.05801509  0.26779446    -0.27000
C1372       C  0.80829176  0.08673440  0.26111908    -0.15100
C1373       C  0.77642167  0.07389654  0.24201208     0.35600
C1374       C  0.75848308  0.03400403  0.22798889    -0.26500
C1375       C  0.77178955  0.00603698  0.23236228    -0.15700
C1376       C  0.80267130  0.01809171  0.25348143     0.36600
N1377       N  0.82054759  0.49302018  0.25500643    -0.89900
H1378       H  0.84468097  0.06777485  0.28287667     0.17700
H1379       H  0.73443641  0.02562259  0.21267359     0.17700
N1380       N  0.76331479  0.10218705  0.23509373    -0.89000
H1381       H  0.83803365  0.00309056  0.27759733     0.35100
H1382       H  0.83063197  0.49260497  0.22917577     0.40200
H1383       H  0.73544118  0.08653978  0.24560706     0.39800
H1384       H  0.76396646  0.10819485  0.20715088     0.34700
C1385       C  0.98137919  0.23975515  0.20196617    -0.27000
C1386       C  0.50647728  0.24166611  0.22510116    -0.15100
C1387       C  0.49448497  0.22956473  0.26213974     0.35600
C1388       C  0.95866843  0.21962866  0.27521926    -0.26500
C1389       C  0.93371257  0.22006338  0.25102115    -0.15700
C1390       C  0.94529085  0.22869313  0.21339245     0.36600
N1391       N  0.92112004  0.22503799  0.18565409    -0.89900
H1392       H  0.98994188  0.24769888  0.17335236     0.17700
H1393       H  0.94992025  0.20835271  0.30331522     0.17700
N1394       N  0.51842725  0.22726401  0.28784514    -0.89000
H1395       H  0.91612056  0.24974209  0.18559068     0.35100
H1396       H  0.89604169  0.19523597  0.18940324     0.40200
H1397       H  0.52255325  0.20291231  0.28147914     0.39800
H1398       H  0.50554948  0.21850386  0.31405933     0.34700
C1399       C  0.68417251  0.05726185  0.41959908    -0.27000
C1400       C  0.67366042  0.06662752  0.45199923    -0.15100
C1401       C  0.70213448  0.09525589  0.47294032     0.35600
C1402       C  0.73979621  0.11738779  0.45958361    -0.26500
C1403       C  0.75045204  0.11198566  0.42524515    -0.15700
C1404       C  0.72231125  0.07843029  0.40663805     0.36600
N1405       N  0.73230071  0.06580514  0.37473538    -0.89900
H1406       H  0.66260594  0.03415096  0.40394948     0.17700
H1407       H  0.76068311  0.13878522  0.47664181     0.17700
N1408       N  0.69287917  0.10199786  0.50812013    -0.89000
H1409       H  0.70848845  0.04105108  0.36439291     0.35100
H1410       H  0.74873801  0.05350854  0.38222364     0.40200
H1411       H  0.70306554  0.13458023  0.50842397     0.39800
H1412       H  0.70673461  0.09394492  0.52682088     0.34700
C1413       C  0.91147116  0.29484744  0.47224315    -0.27000
C1414       C  0.93810386  0.32781179  0.44682098    -0.15100
C1415       C  0.93836001  0.31967131  0.41044544     0.35600
C1416       C  0.91100014  0.27913291  0.40015210    -0.26500
C1417       C  0.88314720  0.24691721  0.42543937    -0.15700
C1418       C  0.88451810  0.25444622  0.46214664     0.36600
N1419       N  0.85867950  0.22099979  0.48912045    -0.89900
H1420       H  0.91099560  0.30124569  0.50016073     0.17700
H1421       H  0.91047098  0.27325648  0.37202311     0.17700
N1422       N  0.96513931  0.35298508  0.38392774    -0.89000
H1423       H  0.86330201  0.23184188  0.51477877     0.35100
H1424       H  0.86426047  0.19662114  0.48954705     0.40200
H1425       H  0.95931535  0.37718593  0.38202612     0.39800
H1426       H  0.96179309  0.34167122  0.35848971     0.34700
C1427       C  0.90767313  0.15429736  0.43748220    -0.27000
C1428       C  0.87558881  0.12504535  0.42088179    -0.15100
C1429       C  0.86932131  0.08475801  0.41522143     0.35600
C1430       C  0.89545094  0.07452608  0.42572451    -0.26500
C1431       C  0.92737841  0.10349647  0.44266725    -0.15700
C1432       C  0.93364178  0.14400834  0.44872254     0.36600
N1433       N  0.96574848  0.17539137  0.46578296    -0.89900
H1434       H  0.91241697  0.18531436  0.44211924     0.17700
H1435       H  0.89027599  0.04322833  0.42141247     0.17700
N1436       N  0.83664503  0.05433169  0.39860426    -0.89000
H1437       H  0.47786216  0.20215983  0.44972172     0.35100
H1438       H  0.48171129  0.16490976  0.47334301     0.40200
H1439       H  0.84537093  0.04654634  0.37543450     0.39800
H1440       H  0.82171956  0.02659014  0.41654080     0.34700
C1441       C  0.82583490  0.40768314  0.57512051    -0.27000
C1442       C  0.84486321  0.44902718  0.55710188    -0.15100
C1443       C  0.82436674  0.46811268  0.54849593     0.35600
C1444       C  0.78564025  0.44574739  0.55840977    -0.26500
C1445       C  0.76587988  0.40364781  0.57650534    -0.15700
C1446       C  0.78727491  0.38478885  0.58446729     0.36600
N1447       N  0.77118202  0.34207289  0.60140090    -0.89900
H1448       H  0.84111986  0.39219249  0.58118362     0.17700
H1449       H  0.77182780  0.46245211  0.55153090     0.17700
N1450       N  0.84176245  0.50944917  0.52852150    -0.89000
H1451       H  0.75238826  0.32001094  0.58489534     0.35100
H1452       H  0.75789749  0.33831256  0.62658705     0.40200
H1453       H  0.85386282  0.00886278  0.50708696     0.39800
H1454       H  0.86363072  0.03060314  0.54706410     0.34700
C1455       C  0.57273930  0.21838500  0.56112172    -0.27000
C1456       C  0.57933199  0.18541564  0.56890258    -0.15100
C1457       C  0.60998965  0.19385783  0.58925004     0.35600
C1458       C  0.63610431  0.23571236  0.59706159    -0.26500
C1459       C  0.63166855  0.26959137  0.58615976    -0.15700
C1460       C  0.59844588  0.26037474  0.56997474     0.36600
N1461       N  0.59172262  0.29394289  0.56105033    -0.89900
H1462       H  0.54898276  0.21213825  0.54609872     0.17700
H1463       H  0.66022065  0.24183354  0.61144545     0.17700
N1464       N  0.61491067  0.15978803  0.60171764    -0.89000
H1465       H  0.56566066  0.28173207  0.55039480     0.35100
H1466       H  0.61174461  0.31446837  0.54037986     0.40200
H1467       H  0.61419133  0.15801079  0.62989886     0.39800
H1468       H  0.64156303  0.16778702  0.59200776     0.34700
C1469       C  0.61351405  0.41506498  0.53289729    -0.27000
C1470       C  0.58647731  0.41275222  0.55734928    -0.15100
C1471       C  0.58492018  0.39845032  0.59400972     0.35600
C1472       C  0.61095283  0.38820843  0.60545253    -0.26500
C1473       C  0.63901205  0.39248593  0.58118778    -0.15700
C1474       C  0.63964389  0.40508153  0.54418435     0.36600
N1475       N  0.66679675  0.40790816  0.51797633    -0.89900
H1476       H  0.61516553  0.42605798  0.50478041     0.17700
H1477       H  0.60970366  0.37780663  0.63367727     0.17700
N1478       N  0.55717381  0.39444923  0.61984537    -0.89000
H1479       H  0.66320239  0.41741025  0.49209371     0.35100
H1480       H  0.66237106  0.37746612  0.51704031     0.40200
H1481       H  0.57100184  0.41400366  0.64021061     0.39800
H1482       H  0.54152629  0.36274239  0.63144838     0.34700
C1483       C  0.92281751  0.36441938  0.89109107    -0.27000
C1484       C  0.93837431  0.33852582  0.89228520    -0.15100
C1485       C  0.97198775  0.35337206  0.90972815     0.35600
C1486       C  0.98977067  0.39350269  0.92312746    -0.26500
C1487       C  0.97545690  0.42025346  0.91963024    -0.15700
C1488       C  0.94100053  0.40497291  0.90430823     0.36600
N1489       N  0.92527362  0.43118660  0.90082511    -0.89900
H1490       H  0.89667164  0.35367007  0.87879559     0.17700
H1491       H  0.51914072  0.40773219  0.93269716     0.17700
N1492       N  0.98940327  0.32920361  0.91385867    -0.89000
H1493       H  0.89949114  0.41500759  0.88940975     0.35100
H1494       H  0.94327569  0.45792525  0.88274834     0.40200
H1495       H  0.99580794  0.32358504  0.88834720     0.39800
H1496       H  0.47579845  0.30335080  0.92723626     0.34700
C1497       C  0.64645452  0.07187492  0.86584316    -0.27000
C1498       C  0.67444099  0.08470613  0.89024772    -0.15100
C1499       C  0.66567526  0.08727556  0.92655742     0.35600
C1500       C  0.62906979  0.07412275  0.93804221    -0.26500
C1501       C  0.60020410  0.05726936  0.91444539    -0.15700
C1502       C  0.60982212  0.05888695  0.87744274     0.36600
N1503       N  0.58212082  0.04628760  0.85161575    -0.89900
H1504       H  0.65276819  0.07159943  0.83750688     0.17700
H1505       H  0.62416573  0.07748067  0.96576276     0.17700
N1506       N  0.69364821  0.10326786  0.95220830    -0.89000
H1507       H  0.59100982  0.07230660  0.83227207     0.35100
H1508       H  0.58076856  0.02140720  0.83864730     0.40200
H1509       H  0.68523857  0.07941083  0.97357356     0.39800
H1510       H  0.69489367  0.12956577  0.96240576     0.34700
C1511       C  0.95689074  0.05682040  0.93746689    -0.27000
C1512       C  0.97914950  0.05233005  0.91164727    -0.15100
C1513       C  0.98114836  0.06732953  0.87517320     0.35600
C1514       C  0.96182599  0.08753357  0.86551004    -0.26500
C1515       C  0.94005959  0.09265212  0.89129837    -0.15700
C1516       C  0.93685836  0.07634662  0.92755626     0.36600
N1517       N  0.91314419  0.07935517  0.95402723    -0.89900
H1518       H  0.46167576  0.05481057  0.96525817     0.17700
H1519       H  0.96310059  0.09862862  0.83747013     0.17700
N1520       N  0.00327382  0.56317438  0.84935993    -0.89000
H1521       H  0.91419830  0.06622286  0.97942780     0.35100
H1522       H  0.88552476  0.06045144  0.94703625     0.40200
H1523       H  0.00317046  0.57778637  0.82432939     0.39800
H1524       H  0.99068539  0.53056845  0.84652606     0.34700
C1525       C  0.76007661  0.26568229  0.74777489    -0.27000
C1526       C  0.74054891  0.22414349  0.76541596    -0.15100
C1527       C  0.70094152  0.20161138  0.76977824     0.35600
C1528       C  0.68227031  0.22244885  0.75871627    -0.26500
C1529       C  0.70217548  0.26513150  0.74260849    -0.15700
C1530       C  0.74158841  0.28602592  0.73624125     0.36600
N1531       N  0.76337053  0.32875137  0.71872595    -0.89900
H1532       H  0.79035354  0.28311286  0.74333734     0.17700
H1533       H  0.65218144  0.20481580  0.76310687     0.17700
N1534       N  0.67982296  0.15835270  0.78657136    -0.89000
H1535       H  0.78316714  0.34811003  0.73616525     0.35100
H1536       H  0.77776043  0.32837225  0.69559288     0.40200
H1537       H  0.68183576  0.13901404  0.76865983     0.39800
H1538       H  0.65134951  0.14746751  0.79006604     0.34700
C1539       C  0.54171201  0.28734606  0.77632757    -0.27000
C1540       C  0.01079670  0.24479270  0.76823716    -0.15100
C1541       C  0.52122597  0.22600309  0.74224572     0.35600
C1542       C  0.55860749  0.24207524  0.73056419    -0.26500
C1543       C  0.58768463  0.28043067  0.74168201    -0.15700
C1544       C  0.57907762  0.30393606  0.76383200     0.36600
N1545       N  0.60822990  0.34401444  0.77451637    -0.89900
H1546       H  0.03202094  0.30426248  0.79192493     0.17700
H1547       H  0.56501540  0.22413906  0.71315641     0.17700
N1548       N  0.49218759  0.18618567  0.73095663    -0.89000
H1549       H  0.60726685  0.34170057  0.80270600     0.35100
H1550       H  0.60267316  0.36743759  0.76574417     0.40200
H1551       H  0.96755792  0.16497715  0.75431104     0.39800
H1552       H  0.49314592  0.18936712  0.70276298     0.34700
C1553       C  0.70580670  0.43324329  0.73542387    -0.27000
C1554       C  0.69933079  0.39766482  0.75810267    -0.15100
C1555       C  0.70673740  0.40224457  0.79484537     0.35600
C1556       C  0.72329772  0.44284172  0.80725416    -0.26500
C1557       C  0.73214782  0.47892392  0.78405011    -0.15700
C1558       C  0.72248367  0.47402007  0.74793324     0.36600
N1559       N  0.72848819  0.00921404  0.72478146    -0.89900
H1560       H  0.69992157  0.42979746  0.70731021     0.17700
H1561       H  0.73030890  0.44662974  0.83509011     0.17700
N1562       N  0.69787248  0.36582152  0.81937756    -0.89000
H1563       H  0.71920474  0.99999224  0.69931832     0.35100
H1564       H  0.75758209  0.03002410  0.72116155     0.40200
H1565       H  0.66882032  0.34457705  0.82101485     0.39800
H1566       H  0.70507737  0.37473946  0.84537279     0.34700
Zr1567     Zr  0.77524925  0.62421653  0.80355889     2.17500
O1568       O  0.74472676  0.61102039  0.74708013    -0.52000
O1569       O  0.71822442  0.59539849  0.84222870    -0.75200
O1570       O  0.74788269  0.55021135  0.78997129    -0.82000
O1571       O  0.79469752  0.73578673  0.79564814    -0.83800
O1572       O  0.78379968  0.52716370  0.81420509    -0.79400
O1573       O  0.75137510  0.66837889  0.78320000    -0.91000
O1574       O  0.73750140  0.61384959  0.89780616    -0.77000
O1575       O  0.78608484  0.59220367  0.85576956    -0.86500
O1576       O  0.79175082  0.67254173  0.84891306    -0.86200
O1577       O  0.82621931  0.61674084  0.78461703    -0.72900
O1578       O  0.82956228  0.69063971  0.77808941    -0.85000
Zr1579     Zr  0.90941247  0.69920026  0.85964806     2.26400
Zr1580     Zr  0.83778309  0.58635048  0.83776586     2.06300
Zr1581     Zr  0.84645395  0.73739055  0.82450261     2.10000
Zr1582     Zr  0.80314804  0.64075243  0.90048951     1.78800
O1583       O  0.88137305  0.79563918  0.77685076    -0.93900
O1584       O  0.77279090  0.57129829  0.93598760    -0.41700
O1585       O  0.85826107  0.70687525  0.87754055    -0.78300
O1586       O  0.85452708  0.63291431  0.88504676    -0.97000
O1587       O  0.89289051  0.65193310  0.81364206    -0.90300
O1588       O  0.89844834  0.73148073  0.80751841    -0.93100
C1589       C  0.71206695  0.59827899  0.87550306     1.00600
C1590       C  0.76356053  0.70827144  0.78341276     1.13600
C1591       C  0.75580107  0.52150496  0.79703763     1.04300
O1592       O  0.81025986  0.52501991  0.88323671    -0.95300
O1593       O  0.88741617  0.58347624  0.86553932    -0.91000
O1594       O  0.92856865  0.64956121  0.88251974    -0.84200
C1595       C  0.91712249  0.60990697  0.88011526     1.11000
O1596       O  0.85540314  0.66997153  0.70320124    -0.97300
Zr1597     Zr  0.88116346  0.68359777  0.76199969     1.88900
O1598       O  0.96479898  0.72714726  0.81818422    -0.73900
O1599       O  0.86208285  0.55560720  0.79793075    -0.53200
O1600       O  0.89550343  0.63933245  0.72823992    -0.97800
O1601       O  0.90506690  0.75025204  0.72341078    -0.55100
O1602       O  0.94798366  0.71600921  0.76059578    -0.74400
C1603       C  0.97210743  0.72833088  0.78428348     0.97900
O1604       O  0.95263373  0.72625285  0.90713080    -0.63200
O1605       O  0.82694681  0.77954974  0.85491033    -0.58000
O1606       O  0.93004070  0.77022628  0.88006230    -0.94700
O1607       O  0.89275893  0.79197874  0.85770468    -0.93200
O1608       O  0.79254462  0.68598133  0.93702670    -0.93500
O1609       O  0.82380420  0.64822104  0.96145813    -0.92300
C1610       C  0.92005720  0.79771551  0.87592165     1.16800
H1611       H  0.77246171  0.67835755  0.85430617     0.32700
H1612       H  0.85995002  0.62120936  0.90632583     0.43600
H1613       H  0.92039698  0.75923809  0.79984913     0.37100
H1614       H  0.81899038  0.59769557  0.76581344     0.33600
H1615       H  0.75625968  0.57245707  0.95465580     0.25400
H1616       H  0.84792919  0.52467345  0.80627937     0.31300
H1617       H  0.91623929  0.65967525  0.71024789     0.37200
H1618       H  0.79536317  0.70912406  0.91959157     0.31700
H1619       H  0.83067359  0.80210272  0.83619160     0.30500
H1620       H  0.86336381  0.78997479  0.75827699     0.32200
H1621       H  0.91767306  0.74747184  0.70191780     0.31200
H1622       H  0.85136899  0.66232625  0.95807327     0.35200
H1623       H  0.94069624  0.70411487  0.92797460     0.27900
H1624       H  0.71852955  0.58709340  0.75340586     0.32200
H1625       H  0.82935245  0.66277981  0.70770600     0.35000
H1626       H  0.79942627  0.76075294  0.85980656     0.27600
H1627       H  0.97485071  0.72575170  0.89865622     0.40500
H1628       H  0.81851735  0.53743134  0.90641504     0.30500
H1629       H  0.75526489  0.55056960  0.91993750     0.38200
H1630       H  0.92587376  0.77264430  0.73589154     0.30000
H1631       H  0.85279843  0.55729080  0.77413634     0.30100
H1632       H  0.75616211  0.59902724  0.73229339     0.30300
C1633       C  0.68281936  0.78902357  0.73468853     0.85800
C1634       C  0.64017097  0.76693666  0.74361271    -0.54400
C1635       C  0.62631696  0.79210146  0.73395861     0.08700
C1636       C  0.65595823  0.83673632  0.71583158     0.19700
C1637       C  0.68811254  0.80309600  0.69415992    -0.55200
C1638       C  0.67462058  0.82839439  0.68428024     0.08800
C1639       C  0.69975209  0.83070302  0.75302630    -0.54700
C1640       C  0.68569081  0.85555749  0.74351203     0.09400
H1641       H  0.62208777  0.73512312  0.75721200     0.13900
H1642       H  0.64465486  0.85690328  0.70753461    -0.00300
H1643       H  0.70257300  0.79493302  0.67488639     0.14200
H1644       H  0.72147048  0.83986977  0.77176289     0.14000
C1645       C  0.55886524  0.53531267  0.92936414     0.85800
C1646       C  0.53741439  0.98873757  0.91709325    -0.54400
C1647       C  0.00192045  0.96791891  0.92563906     0.08700
C1648       C  0.98848346  0.99248055  0.94713227     0.19700
C1649       C  0.53847966  0.55668064  0.91543948    -0.55200
C1650       C  0.00087567  0.53303229  0.92470386     0.08800
C1651       C  0.54983801  0.52815901  0.97051951    -0.54700
C1652       C  0.51262622  0.50508553  0.98133529     0.09400
H1653       H  0.55092722  0.97555811  0.90232680     0.13900
H1654       H  0.95803439  0.97401343  0.95536724    -0.00300
H1655       H  0.55257076  0.58727736  0.89901420     0.14200
H1656       H  0.56993295  0.53588949  0.99048445     0.14000
Zr1657     Zr  0.97808957  0.55243544  0.52875532     2.17500
O1658       O  0.95483451  0.56672583  0.58315803    -0.52000
O1659       O  0.95695012  0.58889885  0.48810700    -0.75200
O1660       O  0.52398324  0.62249264  0.54970459    -0.82000
O1661       O  0.88824516  0.93881116  0.52756298    -0.83800
O1662       O  0.58221623  0.63742767  0.53226485    -0.79400
O1663       O  0.90935607  0.00406845  0.54734225    -0.91000
O1664       O  0.96082045  0.57169709  0.43132143    -0.77000
O1665       O  0.52489815  0.58453291  0.48000359    -0.86500
O1666       O  0.95308840  0.00923478  0.47962192    -0.86200
O1667       O  0.53000085  0.54889687  0.55018971    -0.72900
O1668       O  0.96240804  0.97980623  0.54911585    -0.85000
Zr1669     Zr  0.53858918  0.96929251  0.47095217     2.26400
Zr1670     Zr  0.57624087  0.58017096  0.50014656     2.06300
Zr1671     Zr  0.93969619  0.93966009  0.49831200     2.10000
Zr1672     Zr  0.00024247  0.54242389  0.43079404     1.78800
O1673       O  0.90093697  0.87488289  0.53915848    -0.93900
O1674       O  0.54074953  0.61290202  0.39879012    -0.41700
O1675       O  0.98646938  0.97099447  0.44897358    -0.78300
O1676       O  0.55294447  0.53978843  0.44931122    -0.97000
O1677       O  0.56241459  0.51035429  0.51896562    -0.90300
O1678       O  0.99075280  0.93586543  0.51932000    -0.93100
C1679       C  0.95012413  0.58771118  0.45460684     1.00600
C1680       C  0.88324994  0.96505744  0.54346180     1.13600
C1681       C  0.56023241  0.64617996  0.54832933     1.04300
O1682       O  0.61272663  0.64248539  0.45635551    -0.95300
O1683       O  0.62808569  0.57658165  0.47720914    -0.91000
O1684       O  0.60745900  0.51238538  0.45560290    -0.84200
C1685       C  0.63374316  0.55020689  0.46228872     1.11000
O1686       O  0.49181897  0.98531651  0.62754745    -0.97300
Zr1687     Zr  0.51405917  0.97701419  0.56940482     1.88900
O1688       O  0.56198104  0.93579909  0.51172449    -0.73900
O1689       O  0.62619322  0.60165714  0.54082611    -0.53200
O1690       O  0.57062372  0.51611561  0.60244591    -0.97800
O1691       O  0.97147840  0.90794157  0.60278361    -0.55100
O1692       O  0.54810839  0.94104903  0.56975265    -0.74400
C1693       C  0.56347211  0.93042014  0.54602313     0.97900
O1694       O  0.55753499  0.95705134  0.41276163    -0.63200
O1695       O  0.89393743  0.92221885  0.45338591    -0.58000
O1696       O  0.49383388  0.89590651  0.45476318    -0.94700
O1697       O  0.93462074  0.88071440  0.47075794    -0.93200
O1698       O  0.95121665  0.00130960  0.39171234    -0.93500
O1699       O  0.52423824  0.54630542  0.36975928    -0.92300
C1700       C  0.95676266  0.87066383  0.45732306     1.16800
H1701       H  0.93006375  0.00663023  0.47292817     0.32700
H1702       H  0.57208566  0.55232879  0.42949804     0.43600
H1703       H  0.98336799  0.90657910  0.52580948     0.37100
H1704       H  0.53932511  0.56501475  0.57081075     0.33600
H1705       H  0.52373261  0.62200844  0.39039608     0.25400
H1706       H  0.64280596  0.63308296  0.53556876     0.31300
H1707       H  0.58836386  0.02106505  0.59249601     0.37200
H1708       H  0.92880206  0.49678873  0.40151956     0.31700
H1709       H  0.90421207  0.91607180  0.43208260     0.30500
H1710       H  0.87636969  0.85956503  0.52860953     0.32200
H1711       H  0.47856893  0.88914746  0.59770049     0.31200
H1712       H  0.53197246  0.52526511  0.37104311     0.39100
H1713       H  0.53493700  0.94531950  0.39897583     0.27900
H1714       H  0.95643004  0.59409600  0.57679973     0.32200
H1715       H  0.50126677  0.97352202  0.64603160     0.35000
H1716       H  0.87185233  0.89414338  0.46299289     0.27600
H1717       H  0.57478242  0.98590809  0.40009203     0.40500
H1718       H  0.63722931  0.65962753  0.46670092     0.30500
H1719       H  0.55433345  0.63193442  0.41759314     0.38200
H1720       H  0.94628607  0.90083579  0.59645681     0.30000
H1721       H  0.61407292  0.59724571  0.56521101     0.30100
H1722       H  0.97396932  0.57330769  0.60070632     0.30300
C1723       C  0.79132577  0.63917515  0.40927376     0.85800
C1724       C  0.79851073  0.64844232  0.36796248    -0.54400
C1725       C  0.83540803  0.66902936  0.35567249     0.08700
C1726       C  0.86205165  0.68030921  0.38651433     0.19700
C1727       C  0.81134864  0.61610688  0.42069466    -0.55200
C1728       C  0.84833805  0.63792351  0.40911922     0.08800
C1729       C  0.81545168  0.68433681  0.42236663    -0.54700
C1730       C  0.85270272  0.70544173  0.41089833     0.09400
H1731       H  0.77615806  0.63985029  0.35029074     0.13900
H1732       H  0.89231494  0.69708386  0.37833020    -0.00300
H1733       H  0.79782622  0.58614448  0.43798643     0.14200
H1734       H  0.80441984  0.69869194  0.43901369     0.14000
C1735       C  0.72353941  0.88024070  0.59168026     0.85800
C1736       C  0.70306938  0.90382439  0.58339118    -0.54400
C1737       C  0.66624089  0.88186665  0.59637673     0.08700
C1738       C  0.65369658  0.83928295  0.61914427     0.19700
C1739       C  0.71894944  0.87233141  0.63275809    -0.55200
C1740       C  0.68293699  0.85000700  0.64725165     0.08800
C1741       C  0.69739448  0.83561204  0.57805675    -0.54700
C1742       C  0.66103441  0.81414376  0.59279279     0.09400
H1743       H  0.71510102  0.93402095  0.56708997     0.13900
H1744       H  0.62429335  0.82163255  0.63106975    -0.00300
H1745       H  0.74243782  0.88132258  0.64924796     0.14200
H1746       H  0.70638448  0.82253092  0.55783558     0.14000
Zr1747     Zr  0.61087743  0.79141691  0.13863535     2.17500
O1748       O  0.58117727  0.77783656  0.08168499    -0.52000
O1749       O  0.55375606  0.75912510  0.17790897    -0.75200
O1750       O  0.58559711  0.71814511  0.12296773    -0.82000
O1751       O  0.62587011  0.90212648  0.13841520    -0.83800
O1752       O  0.62370251  0.69664267  0.14394617    -0.79400
O1753       O  0.58677077  0.83655561  0.11952809    -0.91000
O1754       O  0.57046383  0.77195053  0.23518471    -0.77000
O1755       O  0.62164111  0.75751400  0.18955776    -0.86500
O1756       O  0.62481473  0.83611355  0.18637475    -0.86200
O1757       O  0.66367738  0.78731237  0.11948565    -0.72900
O1758       O  0.66502103  0.85959760  0.11591863    -0.85000
Zr1759     Zr  0.74330654  0.86713017  0.19832292     2.26400
Zr1760     Zr  0.67489545  0.75480815  0.17131284     2.06300
Zr1761     Zr  0.67856337  0.90328819  0.16436167     2.10000
Zr1762     Zr  0.63650325  0.80276364  0.23673195     1.78800
O1763       O  0.70901687  0.96311596  0.11747494    -0.93900
O1764       O  0.60892992  0.73164137  0.26878941    -0.41700
O1765       O  0.69035984  0.87128929  0.21639386    -0.78300
O1766       O  0.68942579  0.79843547  0.22048742    -0.97000
O1767       O  0.72950767  0.82246870  0.15066359    -0.90300
O1768       O  0.73227317  0.90065543  0.14716119    -0.93100
C1769       C  0.54616831  0.75789144  0.21176594     1.00600
C1770       C  0.59634147  0.87522943  0.12364106     1.13600
C1771       C  0.59526357  0.69056826  0.12737721     1.04300
O1772       O  0.64810075  0.69447601  0.21783466    -0.95300
O1773       O  0.72727340  0.75456923  0.19487915    -0.91000
O1774       O  0.76502429  0.81862983  0.21706573    -0.84200
C1775       C  0.75576068  0.78031803  0.21133164     1.11000
O1776       O  0.69359002  0.84665916  0.04063313    -0.97300
Zr1777     Zr  0.71847596  0.85557208  0.09987625     1.88900
O1778       O  0.80059257  0.90095181  0.15873336    -0.73900
O1779       O  0.69854538  0.72417304  0.13053643    -0.53200
O1780       O  0.73428579  0.81252269  0.06595417    -0.97800
O1781       O  0.74585154  0.92397501  0.06319143    -0.55100
O1782       O  0.78534967  0.88730209  0.10122399    -0.74400
C1783       C  0.80926080  0.90206622  0.12516615     0.97900
O1784       O  0.77768547  0.88675701  0.25249370    -0.63200
O1785       O  0.65614467  0.93902930  0.20045855    -0.58000
O1786       O  0.76235572  0.93757586  0.21920834    -0.94700
O1787       O  0.72570246  0.95963401  0.19558102    -0.93200
O1788       O  0.62129839  0.84309151  0.27493714    -0.93500
O1789       O  0.65737404  0.80861011  0.29755259    -0.92300
C1790       C  0.75238137  0.96507983  0.21464878     1.16800
H1791       H  0.60456309  0.84015859  0.19237286     0.32700
H1792       H  0.69509734  0.78619644  0.24121333     0.43600
H1793       H  0.75377401  0.92909251  0.14044027     0.37100
H1794       H  0.65748422  0.76960377  0.09977526     0.33600
H1795       H  0.59470463  0.73170751  0.29035087     0.25400
H1796       H  0.68418186  0.69307951  0.13827415     0.31300
H1797       H  0.74883547  0.80538054  0.08216453     0.37200
H1798       H  0.61787062  0.86227189  0.25787244     0.31700
H1799       H  0.65847305  0.96255053  0.18384972     0.30500
H1800       H  0.70260675  0.98368668  0.12519007     0.32200
H1801       H  0.76612320  0.94528941  0.07688789     0.31200
H1802       H  0.68469181  0.82986186  0.29432367     0.35200
H1803       H  0.76395898  0.86104853  0.27013845     0.27900
H1804       H  0.55525613  0.75306220  0.08753525     0.32200
H1805       H  0.71559254  0.85846001  0.02300002     0.35000
H1806       H  0.62881209  0.91855869  0.20529816     0.27600
H1807       H  0.80188908  0.88953502  0.24614337     0.40500
H1808       H  0.65923679  0.70704177  0.24027629     0.30500
H1809       H  0.58934855  0.71198139  0.25355313     0.38200
H1810       H  0.72630065  0.93105936  0.06429583     0.30000
H1811       H  0.68961969  0.72674456  0.10674463     0.30100
H1812       H  0.59369060  0.76707245  0.06683687     0.30300
C1813       C  0.51625389  0.95563989  0.07117086     0.85800
C1814       C  0.97601081  0.93889553  0.08555178    -0.54400
C1815       C  0.96212167  0.96333870  0.07372712     0.08700
C1816       C  0.98947649  0.50199834  0.04968782     0.19700
C1817       C  0.51469103  0.95966376  0.02991499    -0.55200
C1818       C  0.50139436  0.98452889  0.01748042     0.08800
C1819       C  0.53842095  0.50169401  0.08184373    -0.54700
C1820       C  0.52464245  0.52621124  0.07039432     0.09400
H1821       H  0.95989069  0.91003721  0.10402998     0.13900
H1822       H  0.97899575  0.52255677  0.04006647    -0.00300
H1823       H  0.52799529  0.94951278  0.01130563     0.14200
H1824       H  0.56323872  0.51427142  0.09688510     0.14000
C1825       C  0.89324916  0.70019810  0.26404818     0.85800
C1826       C  0.87044415  0.65365669  0.25579174    -0.54400
C1827       C  0.83339836  0.63228044  0.26673718     0.08700
C1828       C  0.82204323  0.66035521  0.28530183     0.19700
C1829       C  0.87339052  0.72147870  0.24793986    -0.55200
C1830       C  0.83615462  0.70065862  0.25842832     0.08800
C1831       C  0.88536117  0.69873147  0.30489403    -0.54700
C1832       C  0.84822710  0.67706550  0.31655353     0.09400
H1833       H  0.88298963  0.63874436  0.24202461     0.13900
H1834       H  0.79174478  0.64342908  0.29345670    -0.00300
H1835       H  0.88777794  0.75239242  0.23222268     0.14200
H1836       H  0.90737468  0.71548208  0.32257626     0.14000
C1837       C  0.91362933  0.94280020  0.12363232    -0.27000
C1838       C  0.92407643  0.95239385  0.08642336    -0.15100
C1839       C  0.89694274  0.94687687  0.06226307     0.35600
C1840       C  0.86033699  0.93188713  0.07571273    -0.26500
C1841       C  0.84939084  0.92103838  0.11290534    -0.15700
C1842       C  0.87655854  0.92645163  0.13716743     0.36600
N1843       N  0.86635523  0.91387535  0.17520123    -0.89900
H1844       H  0.93432191  0.94660359  0.14217924     0.17700
H1845       H  0.84002777  0.92770562  0.05657064     0.17700
N1846       N  0.90479009  0.95338125  0.02387483    -0.89000
H1847       H  0.88981579  0.92086162  0.18918478     0.35100
H1848       H  0.84833909  0.88057470  0.17857003     0.40200
H1849       H  0.91606458  0.93547930  0.01651050     0.39800
H1850       H  0.92412593  0.98572838  0.01621432     0.34700
C1851       C  0.59673091  0.63846246  0.09109446    -0.27000
C1852       C  0.57469623  0.65002629  0.11010440    -0.15100
C1853       C  0.53504076  0.62223235  0.11237560     0.35600
C1854       C  0.51906828  0.58318145  0.09678559    -0.26500
C1855       C  0.54156744  0.57091959  0.07972597    -0.15700
C1856       C  0.58066241  0.59971581  0.07553584     0.36600
N1857       N  0.60392706  0.58942492  0.05540457    -0.89900
H1858       H  0.62693859  0.65997629  0.08832685     0.17700
H1859       H  0.98791971  0.55972613  0.10147137     0.17700
N1860       N  0.51017505  0.63114040  0.13142591    -0.89000
H1861       H  0.63224198  0.61325325  0.05590732     0.35100
H1862       H  0.59760437  0.58950029  0.02849542     0.40200
H1863       H  0.52467150  0.65933541  0.14382041     0.39800
H1864       H  0.49538238  0.60671011  0.15237851     0.34700
C1865       C  0.56439651  0.91445708  0.13359875    -0.27000
C1866       C  0.57184749  0.89048628  0.11118657    -0.15100
C1867       C  0.55685324  0.88284189  0.07723275     0.35600
C1868       C  0.53712181  0.90197849  0.06535817    -0.26500
C1869       C  0.53223546  0.92916154  0.08654178    -0.15700
C1870       C  0.54371614  0.93247910  0.12229727     0.36600
N1871       N  0.53530879  0.95517963  0.14679859    -0.89900
H1872       H  0.57473990  0.91904839  0.16027376     0.17700
H1873       H  0.52579924  0.89537451  0.03931552     0.17700
N1874       N  0.56269405  0.85680422  0.05441996    -0.89000
H1875       H  0.54686095  0.95595722  0.17142975     0.35100
H1876       H  0.50626279  0.93801756  0.15242650     0.40200
H1877       H  0.59142560  0.87279857  0.04706908     0.39800
H1878       H  0.54945506  0.85377577  0.03049818     0.34700
C1879       C  0.80108606  0.73600990  0.27215990    -0.27000
C1880       C  0.81381171  0.71913399  0.24691433    -0.15100
C1881       C  0.80926517  0.72475197  0.21006387     0.35600
C1882       C  0.79152535  0.74628436  0.19902595    -0.26500
C1883       C  0.77877638  0.76331805  0.22408699    -0.15700
C1884       C  0.78366857  0.75826315  0.26105630     0.36600
N1885       N  0.77045133  0.77509150  0.28712394    -0.89900
H1886       H  0.80535541  0.73245579  0.30043174     0.17700
H1887       H  0.78735546  0.74939761  0.17065008     0.17700
N1888       N  0.82225980  0.70804841  0.18381352    -0.89000
H1889       H  0.77629838  0.76878250  0.31309378     0.35100
H1890       H  0.74126193  0.75868270  0.28701901     0.40200
H1891       H  0.84153790  0.73346820  0.16523517     0.39800
H1892       H  0.79938939  0.68681524  0.17001341     0.34700
C1893       C  0.82204649  0.55890034  0.26530799    -0.27000
C1894       C  0.80845502  0.58632865  0.26049768    -0.15100
C1895       C  0.77429435  0.57126045  0.24487160     0.35600
C1896       C  0.75587322  0.53073066  0.23200372    -0.26500
C1897       C  0.77116445  0.50462746  0.23363173    -0.15700
C1898       C  0.80427210  0.51866582  0.25160627     0.36600
N1899       N  0.81681452  0.99058240  0.25976118    -0.89900
H1900       H  0.84792552  0.56995637  0.27824161     0.17700
H1901       H  0.72992067  0.52048123  0.21945444     0.17700
N1902       N  0.75913832  0.59779554  0.24017256    -0.89000
H1903       H  0.84384180  0.50721486  0.27033721     0.35100
H1904       H  0.82936344  0.99040002  0.23523011     0.40200
H1905       H  0.73230891  0.58146889  0.25343470     0.39800
H1906       H  0.75654618  0.60227461  0.21263180     0.34700
C1907       C  0.98267946  0.74216582  0.20176630    -0.27000
C1908       C  0.50717976  0.74158353  0.22477283    -0.15100
C1909       C  0.49477622  0.72836957  0.26160110     0.35600
C1910       C  0.95888720  0.71856175  0.27466560    -0.26500
C1911       C  0.93415474  0.71976449  0.25051117    -0.15700
C1912       C  0.94622940  0.72980545  0.21302208     0.36600
N1913       N  0.92214738  0.72603012  0.18516242    -0.89900
H1914       H  0.99156248  0.75121308  0.17326114     0.17700
H1915       H  0.94969292  0.70603516  0.30251677     0.17700
N1916       N  0.51823728  0.72463204  0.28704389    -0.89000
H1917       H  0.91668575  0.75036139  0.18518945     0.35100
H1918       H  0.89732545  0.69595976  0.18854594     0.40200
H1919       H  0.52191402  0.70017861  0.27997389     0.39800
H1920       H  0.50517891  0.71533386  0.31319462     0.34700
C1921       C  0.68399863  0.55641659  0.41960275    -0.27000
C1922       C  0.67372785  0.56663076  0.45164199    -0.15100
C1923       C  0.70235744  0.59651682  0.47179560     0.35600
C1924       C  0.73968937  0.61930098  0.45762537    -0.26500
C1925       C  0.74992303  0.61282591  0.42358050    -0.15700
C1926       C  0.72194699  0.57785427  0.40617033     0.36600
N1927       N  0.73197106  0.56385446  0.37521067    -0.89900
H1928       H  0.66239340  0.53224756  0.40468355     0.17700
H1929       H  0.76070697  0.64165415  0.47406220     0.17700
N1930       N  0.69371654  0.60363362  0.50708058    -0.89000
H1931       H  0.70821342  0.53811180  0.36570962     0.35100
H1932       H  0.74880752  0.55241684  0.38358549     0.40200
H1933       H  0.70333379  0.63610950  0.50703937     0.39800
H1934       H  0.70854073  0.59662681  0.52539709     0.34700
C1935       C  0.91002839  0.79377510  0.47076793    -0.27000
C1936       C  0.93713108  0.82688540  0.44575831    -0.15100
C1937       C  0.93824227  0.81901767  0.40939001     0.35600
C1938       C  0.91069916  0.77893521  0.39852060    -0.26500
C1939       C  0.88220734  0.74683202  0.42334876    -0.15700
C1940       C  0.88308753  0.75372979  0.46015415     0.36600
N1941       N  0.85667253  0.72002994  0.48666749    -0.89900
H1942       H  0.90916407  0.79981006  0.49873919     0.17700
H1943       H  0.91068390  0.77326429  0.37037077     0.17700
N1944       N  0.96633795  0.85201390  0.38352150    -0.89000
H1945       H  0.86101732  0.73040038  0.51249493     0.35100
H1946       H  0.86187176  0.69535560  0.48694360     0.40200
H1947       H  0.96169465  0.87712847  0.38127789     0.39800
H1948       H  0.96338866  0.84094237  0.35800868     0.34700
C1949       C  0.90691686  0.65423255  0.43647436    -0.27000
C1950       C  0.87430633  0.62485758  0.42067274    -0.15100
C1951       C  0.86781415  0.58454163  0.41478348     0.35600
C1952       C  0.89344619  0.57366044  0.42573682    -0.26500
C1953       C  0.92578625  0.60265256  0.44220858    -0.15700
C1954       C  0.93319851  0.64400660  0.44669951     0.36600
N1955       N  0.96733480  0.67673778  0.46016689    -0.89900
H1956       H  0.91229608  0.68567511  0.44046810     0.17700
H1957       H  0.88787579  0.54215602  0.42163037     0.17700
N1958       N  0.83574720  0.55507353  0.39689675    -0.89000
H1959       H  0.47893908  0.70124426  0.44693205     0.35100
H1960       H  0.48250940  0.66399800  0.47080419     0.40200
H1961       H  0.84521744  0.54828158  0.37360426     0.39800
H1962       H  0.82022451  0.52669171  0.41398648     0.34700
C1963       C  0.82468488  0.90521712  0.57523732    -0.27000
C1964       C  0.84416989  0.94707873  0.55820362    -0.15100
C1965       C  0.82426255  0.96718898  0.55096310     0.35600
C1966       C  0.78566214  0.94531021  0.56110617    -0.26500
C1967       C  0.76542463  0.90272777  0.57810783    -0.15700
C1968       C  0.78620606  0.88283425  0.58492597     0.36600
N1969       N  0.76964308  0.83975418  0.60124165    -0.89900
H1970       H  0.83954625  0.88903573  0.58038513     0.17700
H1971       H  0.77234379  0.96280748  0.55526928     0.17700
N1972       N  0.84211549  0.00915518  0.53207818    -0.89000
H1973       H  0.75028293  0.81816278  0.58481900     0.35100
H1974       H  0.75695603  0.83588572  0.62678654     0.40200
H1975       H  0.85385172  0.50855561  0.50396826     0.39800
H1976       H  0.86299834  0.53178296  0.54323757     0.34700
C1977       C  0.57433495  0.71996468  0.55696196    -0.27000
C1978       C  0.57970471  0.68635082  0.56646812    -0.15100
C1979       C  0.60910174  0.69411461  0.58840282     0.35600
C1980       C  0.63512219  0.73582822  0.59666592    -0.26500
C1981       C  0.63156317  0.77013293  0.58481358    -0.15700
C1982       C  0.59968131  0.76171886  0.56649074     0.36600
N1983       N  0.59388277  0.79578588  0.55639858    -0.89900
H1984       H  0.55167366  0.71424999  0.54042590     0.17700
H1985       H  0.65833290  0.74146657  0.61236562     0.17700
N1986       N  0.61257420  0.65942743  0.60234765    -0.89000
H1987       H  0.56863616  0.78409233  0.54421084     0.35100
H1988       H  0.61507924  0.81643838  0.53665173     0.40200
H1989       H  0.61056459  0.65785284  0.63053300     0.39800
H1990       H  0.63933094  0.66655104  0.59408554     0.34700
C1991       C  0.61506610  0.91790516  0.53485549    -0.27000
C1992       C  0.58686275  0.91371557  0.55887997    -0.15100
C1993       C  0.58412057  0.89752685  0.59514060     0.35600
C1994       C  0.61037733  0.88772690  0.60685163    -0.26500
C1995       C  0.63934436  0.89336675  0.58303533    -0.15700
C1996       C  0.64105554  0.90770128  0.54623766     0.36600
N1997       N  0.66911762  0.91205900  0.52030762    -0.89900
H1998       H  0.61756745  0.93027637  0.50699713     0.17700
H1999       H  0.60826184  0.87603259  0.63486264     0.17700
N2000       N  0.55455217  0.89053661  0.62015799    -0.89000
H2001       H  0.66646427  0.92311122  0.49464740     0.35100
H2002       H  0.66484505  0.88185690  0.51816600     0.40200
H2003       H  0.56664137  0.90872222  0.64172287     0.39800
H2004       H  0.53935687  0.85823379  0.63020294     0.34700
C2005       C  0.92437589  0.86467379  0.89198018    -0.27000
C2006       C  0.94039177  0.83932308  0.89257050    -0.15100
C2007       C  0.97558048  0.85581115  0.90723085     0.35600
C2008       C  0.99390664  0.89665997  0.91934087    -0.26500
C2009       C  0.97863097  0.92258360  0.91692402    -0.15700
C2010       C  0.94320314  0.90604768  0.90342305     0.36600
N2011       N  0.92701034  0.93177088  0.89993288    -0.89900
H2012       H  0.89723900  0.85280061  0.88147167     0.17700
H2013       H  0.51905309  0.90633176  0.93264303     0.17700
N2014       N  0.99398657  0.83260564  0.90968731    -0.89000
H2015       H  0.90070655  0.91481452  0.88958236     0.35100
H2016       H  0.94416819  0.95783680  0.88094103     0.40200
H2017       H  0.99819039  0.82581010  0.88384797     0.39800
H2018       H  0.47558392  0.80193433  0.92806918     0.34700
C2019       C  0.64595719  0.57555556  0.86515349    -0.27000
C2020       C  0.67355682  0.58418029  0.88932914    -0.15100
C2021       C  0.66441239  0.58141556  0.92662276     0.35600
C2022       C  0.62843705  0.56968098  0.93888281    -0.26500
C2023       C  0.59990782  0.55805440  0.91520778    -0.15700
C2024       C  0.60951553  0.56287895  0.87767068     0.36600
N2025       N  0.58200672  0.55394455  0.85217475    -0.89900
H2026       H  0.65246704  0.57836755  0.83637191     0.17700
H2027       H  0.62369623  0.56877836  0.96748754     0.17700
N2028       N  0.69120391  0.58937553  0.95273103    -0.89000
H2029       H  0.59167304  0.58163600  0.83463193     0.35100
H2030       H  0.57971427  0.53003896  0.83703644     0.40200
H2031       H  0.68045328  0.56182512  0.97073929     0.39800
H2032       H  0.69447046  0.61420134  0.96719174     0.34700
C2033       C  0.95420843  0.55345455  0.93837050    -0.27000
C2034       C  0.97742316  0.55024433  0.91277542    -0.15100
C2035       C  0.98100486  0.56751021  0.87662234     0.35600
C2036       C  0.96241092  0.58869457  0.86732966    -0.26500
C2037       C  0.93999689  0.59282690  0.89307418    -0.15700
C2038       C  0.93532616  0.57446753  0.92885058     0.36600
N2039       N  0.91159252  0.57736314  0.95536271    -0.89900
H2040       H  0.46071692  0.55402677  0.96803190     0.17700
H2041       H  0.96479581  0.60139777  0.83957466     0.17700
N2042       N  0.00249129  0.06151150  0.84798553    -0.89000
H2043       H  0.91148551  0.56266018  0.98042823     0.35100
H2044       H  0.88417023  0.55994371  0.94755643     0.40200
H2045       H  0.00095542  0.07409626  0.82253329     0.39800
H2046       H  0.99011619  0.02861856  0.84684583     0.34700
C2047       C  0.75992053  0.76468193  0.74820818    -0.27000
C2048       C  0.74092807  0.72465781  0.76832321    -0.15100
C2049       C  0.70174286  0.70326542  0.77580133     0.35600
C2050       C  0.68275756  0.72337987  0.76400110    -0.26500
C2051       C  0.70209986  0.76462536  0.74492544    -0.15700
C2052       C  0.74120277  0.78466880  0.73652685     0.36600
N2053       N  0.76244810  0.82608664  0.71659659    -0.89900
H2054       H  0.78995079  0.78117220  0.74199014     0.17700
H2055       H  0.65302518  0.70661702  0.77078432     0.17700
N2056       N  0.68166545  0.66243043  0.79705239    -0.89000
H2057       H  0.78352784  0.84679249  0.73237708     0.35100
H2058       H  0.77530586  0.82351222  0.69334903     0.40200
H2059       H  0.68162220  0.63997707  0.78150913     0.39800
H2060       H  0.65355616  0.65242057  0.80230615     0.34700
C2061       C  0.54011450  0.78658904  0.77452202    -0.27000
C2062       C  0.01100425  0.74418758  0.77157534    -0.15100
C2063       C  0.52095258  0.72035354  0.74786788     0.35600
C2064       C  0.55828719  0.73755619  0.73531764    -0.26500
C2065       C  0.58682620  0.77816212  0.74316346    -0.15700
C2066       C  0.57759452  0.80313917  0.76250302     0.36600
N2067       N  0.60629526  0.84456108  0.77129925    -0.89900
H2068       H  0.03242339  0.80361024  0.79536112     0.17700
H2069       H  0.56529522  0.71824747  0.72044224     0.17700
N2070       N  0.49396893  0.67691017  0.74127137    -0.89000
H2071       H  0.60513436  0.84457225  0.79937259     0.35100
H2072       H  0.60043450  0.86698023  0.76031099     0.40200
H2073       H  0.96689286  0.66510755  0.75632852     0.39800
H2074       H  0.50276887  0.65754607  0.75314901     0.34700
C2075       C  0.70496954  0.93225374  0.73597156    -0.27000
C2076       C  0.69801829  0.89663220  0.75886397    -0.15100
C2077       C  0.70391417  0.90091124  0.79591039     0.35600
C2078       C  0.72087229  0.94159784  0.80825458    -0.26500
C2079       C  0.73035623  0.97772041  0.78481745    -0.15700
C2080       C  0.72077499  0.97282744  0.74870013     0.36600
N2081       N  0.73150451  0.51064682  0.72361157    -0.89900
H2082       H  0.69966082  0.92887113  0.70773018     0.17700
H2083       H  0.72737623  0.94535429  0.83622421     0.17700
N2084       N  0.69275647  0.86400469  0.82082746    -0.89000
H2085       H  0.72238344  0.50146549  0.69809356     0.35100
H2086       H  0.76071608  0.53049361  0.72024356     0.40200
H2087       H  0.66362637  0.84388624  0.82118150     0.39800
H2088       H  0.69875697  0.87271743  0.84705591     0.34700
loop_ 
_geom_bond_atom_site_label_1 
_geom_bond_atom_site_label_2 
_geom_bond_distance 
_geom_bond_site_symmetry_2 
_ccdc_geom_bond_type 
Zr1           O2   2.440       .  S
Zr1           O3   2.421       .  S
Zr1           O4   2.448       .  S
Zr1           O7   2.429       .  S
Zr1           O9   2.386       .  S
Zr1          O10   2.387       .  S
Zr1          O11   2.401       .  S
Zr1          O12   2.406       .  S
O2           H58   0.991       .  S
O2           H66   0.990       .  S
O3           C23   1.283       .  A
O4           C25   1.286       .  A
O5          Zr15   2.437       .  S
O5           C24   1.285       .  A
O6          Zr14   2.422       .  S
O6           C25   1.283       .  A
O7           C24   1.283       .  A
O8          Zr16   2.404       .  S
O8           C23   1.278       .  A
O9          Zr14   2.386       .  S
O9          Zr16   2.380       .  S
O10         Zr15   2.377       .  S
O10         Zr16   2.375       .  S
O10          H45   0.965       .  S
O11         Zr14   2.392       .  S
O11         Zr31   2.392       .  S
O11          H48   0.966       .  S
O12         Zr15   2.384       .  S
O12         Zr31   2.393       .  S
Zr13         O38   2.439       .  S
Zr13         O32   2.444       .  S
Zr13         O40   2.480       .  S
Zr13         O28   2.487       .  S
Zr13         O19   2.403       .  S
Zr13         O20   2.410       .  S
Zr13         O21   2.382       .  S
Zr13         O22   2.396       .  S
Zr14         O33   2.438       .  S
Zr14         O26   2.436       .  S
Zr14         O27   2.406       .  S
Zr14         O20   2.397       .  S
Zr14         O21   2.391       .  S
Zr15         O17   2.436       .  S
Zr15         O39   2.441       .  S
Zr15         O41   2.410       .  S
Zr15         O19   2.401       .  S
Zr15         O22   2.392       .  S
Zr16         O42   2.436       .  S
Zr16         O43   2.436       .  S
Zr16         O18   2.438       .  S
Zr16         O19   2.384       .  S
Zr16         O20   2.397       .  S
O17          H54   0.990       .  S
O18          H49   0.991       .  S
O18          H63   0.990       .  S
O20          H46   0.967       .  S
O21         Zr31   2.376       .  S
O22         Zr31   2.382       .  S
O22          H47   0.965       .  S
C23         C454   1.478       .  S
C24         C482   1.485       .  S
C25        C1035   1.481   1_545  S
O26          H62   0.990       .  S
O27          C29   1.279       .  A
O28          C29   1.293       .  A
C29         C471   1.484       .  S
O30         Zr31   2.435       .  S
O30          H59   0.990       .  S
Zr31         O34   2.434       .  S
Zr31         O35   2.440       .  S
Zr31         O36   2.409       .  S
O32          C37   1.286       .  A
O33          H50   0.990       .  S
O33          H65   0.990       .  S
O34          H51   0.990       .  S
O35          H55   0.990       .  S
O35          H64   0.990       .  S
O36          C37   1.279       .  A
C37         C496   1.477       .  S
O38          H57   0.990       .  S
O38          H61   0.990       .  S
O39          H53   0.991       .  S
O39          H60   0.990       .  S
O40          C44   1.294       .  A
O41          C44   1.282       .  A
O42          H52   0.990       .  S
O43          H56   0.990       .  S
C44         C440   1.505       .  S
C67          C68   1.544       .  S
C67          C73   1.537       .  S
C67          C71   1.533       .  S
C67         C485   1.539       .  S
C68          H75   1.082       .  S
C68          C69   1.371       .  D
C69          C70   1.538       .  S
C69         C499   1.481       .  S
C70          C74   1.537       .  S
C70          C72   1.538       .  S
C70          H76   1.111       .  S
C71          H77   1.086       .  S
C71          C72   1.365       .  D
C72         C174   1.483       .  S
C73          H78   1.086       .  S
C73          C74   1.366       .  D
C74         C510   1.484       .  S
C79          C85   1.538       .  S
C79          C83   1.528       .  S
C79         C602   1.528   1_545  S
C79         C457   1.527       .  S
C80         C601   1.531       .  S
C80          H87   1.087       .  S
C80        C1125   1.363   1_455  D
C81          C82   1.554       .  S
C81        C1124   1.361       .  D
C81         C443   1.498       .  S
C82        C1652   1.543       .  S
C82         C606   1.557       .  S
C82          H88   1.109       .  S
C83          H89   1.086       .  S
C83        C1128   1.368       .  D
C84         C604   1.558   1_545  S
C84        C1127   1.364       .  D
C84         C468   1.490       .  S
C85          H90   1.077       .  S
C85          C86   1.361       .  D
C86        C1648   1.541   1_445  S
C86         C774   1.483   1_546  S
Zr91         O92   2.437       .  S
Zr91         O93   2.435       .  S
Zr91       O1138   2.500       .  S
Zr91        O619   2.480       .  S
Zr91       O1143   2.390       .  S
Zr91        O622   2.390       .  S
Zr91       O1145   2.409       .  S
Zr91        O624   2.411   1_545  S
O92         H148   0.990       .  S
O92         H156   0.990       .  S
O93         C113   1.285       .  A
O94       Zr1135   2.501   1_455  S
O94         C115   1.296       .  A
O95        Zr105   2.399       .  S
O95         C114   1.279       .  A
O96        Zr104   2.402       .  S
O96         C115   1.278       .  A
O97        Zr613   2.479       .  S
O97         C114   1.294       .  A
O98        Zr106   2.428       .  S
O98         C113   1.284       .  A
O99        Zr104   2.389       .  S
O99       Zr1135   2.389   1_455  S
O99       Zr1150   2.382       .  S
O100       Zr105   2.373       .  S
O100       Zr613   2.389       .  S
O100       Zr628   2.375       .  S
O100        H135   0.965       .  S
O101       Zr104   2.394       .  S
O101      Zr1135   2.407   1_455  S
O101       Zr643   2.386   1_545  S
O101        H138   0.965       .  S
O102       Zr105   2.389       .  S
O102       Zr613   2.413       .  S
O102      Zr1165   2.390       .  S
Zr103       O128   2.443       .  S
Zr103       O122   2.436       .  S
Zr103       O130   2.489   1_455  S
Zr103       O640   2.472       .  S
Zr103      O1153   2.405   1_455  S
Zr103       O632   2.415       .  S
Zr103       O633   2.381       .  S
Zr103      O1156   2.389   1_455  S
Zr104       O123   2.436       .  S
Zr104       O116   2.435       .  S
Zr104       O117   2.400       .  S
Zr104       O110   2.392       .  S
Zr104       O111   2.376       .  S
Zr105       O107   2.434       .  S
Zr105       O129   2.437       .  S
Zr105       O131   2.396       .  S
Zr105       O109   2.391       .  S
Zr105       O112   2.381       .  S
Zr106       O654   2.434       .  S
Zr106      O1177   2.435       .  S
Zr106      O1152   2.439       .  S
Zr106      O1143   2.380       .  S
Zr106       O622   2.375       .  S
Zr106       O631   2.403   1_545  S
Zr106      O1154   2.395       .  S
O107        H144   0.990       .  S
O108      Zr1150   2.437       .  S
O108        H139   0.990       .  S
O108        H153   0.990       .  S
O109      Zr1147   2.405       .  S
O109       Zr628   2.399       .  S
O110       Zr625   2.414   1_545  S
O110      Zr1150   2.395       .  S
O110        H136   0.967       .  S
O111       Zr625   2.382   1_545  S
O111       Zr643   2.371   1_545  S
O112      Zr1147   2.390       .  S
O112      Zr1165   2.377       .  S
O112        H137   0.966       .  S
C113        C387   1.471       .  S
C114        C398   1.489       .  S
C115        C412   1.491       .  S
O116        H152   0.990       .  S
O117        C119   1.280       .  A
O118       Zr625   2.474   1_545  S
O118        C119   1.292       .  A
C119        C356   1.487       .  S
O120       Zr121   2.439   1_655  S
O120        H149   0.990   1_655  S
Zr121       O646   2.436       .  S
Zr121      O1169   2.439   1_455  S
Zr121       O126   2.417       .  S
Zr121       O623   2.388       .  S
Zr121      O1146   2.391   1_455  S
Zr121       O633   2.373       .  S
Zr121      O1156   2.375   1_455  S
O122        C127   1.287       .  A
O123        H140   0.990       .  S
O123        H155   0.989       .  S
O124       Zr643   2.437   1_545  S
O124        H663   0.990   1_545  S
O125      Zr1165   2.437       .  S
O125        H154   0.989       .  S
O125       H1189   0.990       .  S
O126        C127   1.281       .  A
C127        C426   1.489       .  S
O128        H147   0.990       .  S
O128        H151   0.990       .  S
O129        H143   0.990       .  S
O129        H150   0.990       .  S
O130       C1178   1.295       .  A
O131        C134   1.278       .  A
O132       Zr628   2.434       .  S
O132        H664   0.990       .  S
O133      Zr1150   2.434       .  S
O133        H146   0.990       .  S
C134       O1174   1.295       .  A
C134        C370   1.488       .  S
H141        O646   0.990       .  S
H142        O654   0.990   1_565  S
H145       O1169   0.990       .  S
C157        C158   1.537       .  S
C157        C163   1.556       .  S
C157        C161   1.534       .  S
C157        C359   1.538       .  S
C158        H165   1.081       .  S
C158        C159   1.366       .  D
C159        C160   1.550       .  S
C159        C266   1.493       .  S
C160        C164   1.529       .  S
C160        C162   1.529       .  S
C160        H166   1.105       .  S
C161        H167   1.086       .  S
C161        C162   1.361       .  D
C162        C384   1.476       .  S
C163        H168   1.084       .  S
C163        C164   1.372       .  D
C164        C373   1.497       .  S
C169        C170   1.540       .  S
C169        C175   1.559       .  S
C169        C173   1.529       .  S
C169        C401   1.556       .  S
C170        H177   1.079       .  S
C170        C171   1.369       .  D
C171        C172   1.545       .  S
C171        C429   1.489       .  S
C172        C176   1.530       .  S
C172        C174   1.542       .  S
C172        H178   1.111       .  S
C173        H179   1.087       .  S
C173        C174   1.361       .  D
C175        H180   1.084       .  S
C175        C176   1.375       .  D
C176        C415   1.497       .  S
Zr181       O182   2.438       .  S
Zr181       O183   2.426       .  S
Zr181       O184   2.456       .  S
Zr181       O187   2.447       .  S
Zr181       O189   2.388       .  S
Zr181       O190   2.383       .  S
Zr181       O191   2.406       .  S
Zr181       O192   2.406       .  S
O182        H238   0.990       .  S
O182        H246   0.990       .  S
O183        C203   1.284       .  A
O184        C205   1.288       .  A
O185       Zr195   2.430       .  S
O185        C204   1.283       .  A
O186       Zr194   2.428       .  S
O186        C205   1.285       .  A
O187        C204   1.287       .  A
O188       Zr196   2.396       .  S
O188        C203   1.278       .  A
O189       Zr194   2.383       .  S
O189       Zr196   2.381       .  S
O190       Zr195   2.372       .  S
O190       Zr196   2.375       .  S
O190        H225   0.965       .  S
O191       Zr194   2.393       .  S
O191       Zr211   2.394       .  S
O191        H228   0.967       .  S
O192       Zr195   2.384       .  S
O192       Zr211   2.401       .  S
Zr193       O218   2.439       .  S
Zr193       O212   2.436       .  S
Zr193       O220   2.477       .  S
Zr193       O208   2.479       .  S
Zr193       O199   2.398       .  S
Zr193       O200   2.407       .  S
Zr193       O201   2.380       .  S
Zr193       O202   2.391       .  S
Zr194       O213   2.438       .  S
Zr194       O206   2.438       .  S
Zr194       O207   2.403       .  S
Zr194       O200   2.398       .  S
Zr194       O201   2.389       .  S
Zr195       O197   2.434       .  S
Zr195       O219   2.439       .  S
Zr195       O221   2.395       .  S
Zr195       O199   2.397       .  S
Zr195       O202   2.391       .  S
Zr196       O222   2.437       .  S
Zr196       O223   2.438       .  S
Zr196       O198   2.437       .  S
Zr196       O199   2.386       .  S
Zr196       O200   2.386       .  S
O197        H234   0.990       .  S
O198        H229   0.990       .  S
O198        H243   0.990       .  S
O200        H226   0.966       .  S
O201       Zr211   2.368       .  S
O202       Zr211   2.380       .  S
O202        H227   0.966       .  S
C203        C342   1.475       .  S
C204        C300   1.484       .  S
C205        C286   1.488       .  S
O206        H242   0.990       .  S
O207        C209   1.279       .  A
O208        C209   1.292       .  A
C209        C317   1.479       .  S
O210       Zr211   2.437       .  S
O210        H239   0.990       .  S
Zr211       O214   2.437       .  S
Zr211       O215   2.438       .  S
Zr211       O216   2.420       .  S
O212        C217   1.285       .  A
O213        H230   0.990       .  S
O213        H245   0.990       .  S
O214        H231   0.990       .  S
O215        H235   0.990       .  S
O215        H244   0.989       .  S
O216        C217   1.282       .  A
C217        C275   1.492       .  S
O218        H237   0.990       .  S
O218        H241   0.990       .  S
O219        H233   0.990       .  S
O219        H240   0.990       .  S
O220        C224   1.294       .  A
O221        C224   1.279       .  A
O222        H232   0.990       .  S
O223        H236   0.990       .  S
C224        C853   1.501       .  S
C247        C251   1.545       .  S
C247       C1292   1.530   1_455  S
C247        C775   1.540       .  S
C247        C303   1.547       .  S
C248       C1291   1.532       .  S
C248        H255   1.086       .  S
C248        C249   1.371       .  D
C249        C772   1.541       .  S
C249        C272   1.483       .  S
C250        C771   1.540   1_545  S
C250       C1298   1.537       .  S
C250       C1818   1.540   1_545  S
C250        H256   1.109       .  S
C251        H257   1.084       .  S
C251        C252   1.371       .  D
C252       C1816   1.543   1_455  S
C252        C608   1.490   1_554  S
C253        C769   1.544   1_545  S
C253        H258   1.086       .  S
C253        C254   1.367       .  D
C254       C1294   1.536   1_455  S
C254        C289   1.492       .  S
C259        C260   1.522       .  S
C259        C265   1.540       .  S
C259        C263   1.530       .  S
C259        C345   1.526       .  S
C260        H267   1.088       .  S
C260        C261   1.357       .  D
C261        C262   1.547       .  S
C261        C328   1.488       .  S
C262        C266   1.550       .  S
C262        C264   1.548       .  S
C262        H268   1.105       .  S
C263        H269   1.083       .  S
C263        C264   1.364       .  D
C264        C314   1.485       .  S
C265        H270   1.077       .  S
C265        C266   1.366       .  D
C271        C272   1.401       .  A
C271        C276   1.404       .  A
C271        H278   1.084       .  S
C272        C273   1.413       .  A
C273        C274   1.400       .  A
C273        N280   1.433       .  S
C274        C275   1.410       .  A
C274        H279   1.084       .  S
C275        C276   1.418       .  A
C276        N277   1.438       .  S
N277        H281   1.046       .  S
N277        H282   1.046       .  S
N280        H283   1.045       .  S
N280        H284   1.043       .  S
C285        C286   1.405       .  A
C285        C290   1.401       .  A
C285        H292   1.084       .  S
C286        C287   1.422       .  A
C287        C288   1.412       .  A
C287        N294   1.439       .  S
C288        C289   1.407       .  A
C288       H1337   1.084   1_455  S
C289        C290   1.408       .  A
C290        N291   1.437       .  S
N291        H295   1.045       .  S
N291        H296   1.044       .  S
H293       C1332   1.084       .  S
N294        H297   1.042       .  S
N294        H298   1.046   1_455  S
C299        C300   1.402       .  A
C299        C304   1.409       .  A
C299        H306   1.084       .  S
C300        C301   1.407       .  A
C301        C302   1.410       .  A
C301        N308   1.438       .  S
C302        C303   1.414       .  A
C302        H307   1.078       .  S
C303        C304   1.423       .  A
C304        N305   1.439       .  S
N305        H309   1.046       .  S
N305        H310   1.045       .  S
N308        H311   1.046       .  S
N308        H312   1.045       .  S
C313        C314   1.405       .  A
C313        C318   1.414       .  A
C313        H320   1.084       .  S
C314        C315   1.407       .  A
C315        C316   1.401       .  A
C315        N322   1.433       .  S
C316        C317   1.403       .  A
C316        H321   1.084       .  S
C317        C318   1.413       .  A
C318        N319   1.437       .  S
N319        H323   1.046       .  S
N319        H324   1.046       .  S
N322        H325   1.045       .  S
N322        H326   1.045       .  S
C327        C328   1.409       .  A
C327        C332   1.407       .  A
C327        H334   1.084       .  S
C328        C329   1.401       .  A
C329        C330   1.401       .  A
C329        N336   1.432       .  S
C330        C331   1.416       .  A
C330        H335   1.083       .  S
C331        C746   1.494   1_545  S
C331        C332   1.414       .  A
C332        N855   1.438   1_545  S
N333        C854   1.437       .  S
N333        H338   1.045       .  S
N333        H859   1.046       .  S
N336        H339   1.046       .  S
N336        H340   1.046       .  S
H337        N855   1.046   1_545  S
C341        C346   1.394       .  A
C341       C1386   1.399       .  A
C341        H348   1.084       .  S
C342        C343   1.411   1_455  A
C342       C1385   1.400   1_455  A
C343       C1388   1.395       .  A
C343        N350   1.439   1_655  S
C344        C345   1.412       .  A
C344       C1387   1.396       .  A
C344        H349   1.077       .  S
C345        C346   1.426       .  A
C346        N347   1.434       .  S
N347        H351   1.041       .  S
N347        H352   1.044       .  S
N350        H353   1.046       .  S
N350        H354   1.046       .  S
C355        C356   1.401       .  A
C355        C360   1.414       .  A
C355        H362   1.084       .  S
C356        C357   1.411       .  A
C357        C358   1.398       .  A
C357        N364   1.433       .  S
C358        C359   1.405       .  A
C358        H363   1.081       .  S
C359        C360   1.427       .  A
C360        N361   1.438       .  S
N361        H365   1.046       .  S
N361        H366   1.045       .  S
N364        H367   1.046       .  S
N364        H368   1.046       .  S
C369        C370   1.406       .  A
C369        C374   1.406       .  A
C369        H376   1.084       .  S
C370        C371   1.412       .  A
C371        C372   1.417       .  A
C371        N378   1.437       .  S
C372        C373   1.409       .  A
C372        H377   1.084       .  S
C373        C374   1.410       .  A
C374        N375   1.438       .  S
N375        H379   1.046       .  S
N375        H380   1.046       .  S
N378        H381   1.046       .  S
N378        H382   1.046       .  S
C383        C384   1.404       .  A
C383        C388   1.402       .  A
C383        H390   1.084       .  S
C384        C385   1.402       .  A
C385        C386   1.400       .  A
C385        N392   1.432       .  S
C386        C387   1.406       .  A
C386        H391   1.084       .  S
C387        C388   1.416       .  A
C388        N389   1.439       .  S
N389       H1437   1.046       .  S
N389       H1438   1.043       .  S
N392        H395   1.045       .  S
N392        H396   1.046       .  S
H393       N1433   1.046       .  S
H394       N1433   1.043       .  S
C397        C398   1.402       .  A
C397        C402   1.399       .  A
C397        H404   1.085       .  S
C398        C399   1.409       .  A
C399        C400   1.410       .  A
C399        N406   1.434       .  S
C400        C401   1.423       .  A
C400        H405   1.075       .  S
C401        C402   1.429       .  A
C402        N403   1.435       .  S
N403        H407   1.041       .  S
N403        H408   1.041       .  S
N406        H931   1.046       .  S
N406        H932   1.045       .  S
H409        N928   1.046       .  S
H410        N928   1.045       .  S
C411        C412   1.402       .  A
C411        C416   1.417       .  A
C411        H418   1.083       .  S
C412        C413   1.415       .  A
C413        C414   1.406       .  A
C413        N420   1.432       .  S
C414        C415   1.399       .  A
C414        H419   1.084       .  S
C415        C416   1.418       .  A
C416        N417   1.434       .  S
N417        H421   1.046       .  S
N417        H422   1.043       .  S
N420        H423   1.046       .  S
N420        H424   1.045       .  S
C425        C426   1.404       .  A
C425        C430   1.401       .  A
C425        H432   1.083       .  S
C426        C427   1.416       .  A
C427        C428   1.405       .  A
C427        N434   1.432       .  S
C428        C429   1.402       .  A
C428        H433   1.084       .  S
C429        C430   1.419       .  A
C430        N431   1.440       .  S
N431        H435   1.046       .  S
N431        H436   1.044       .  S
N434        H437   1.046       .  S
N434        H438   1.046       .  S
C439        C440   1.416       .  A
C439        C444   1.410       .  A
C439        H446   1.083       .  S
C440        C441   1.417       .  A
C441        C442   1.402       .  A
C441        N448   1.431       .  S
C442        C443   1.411       .  A
C442       H1491   1.084       .  S
C443        C444   1.407       .  A
C444        N445   1.437       .  S
N445        H449   1.046       .  S
N445        H450   1.044       .  S
H447       C1486   1.084   1_455  S
N448        H451   1.045       .  S
N448       H1496   1.045       .  S
H452       N1492   1.045       .  S
C453        C454   1.402       .  A
C453        C458   1.399       .  A
C453        H460   1.083       .  S
C454        C455   1.411       .  A
C455        C456   1.394       .  A
C455        N462   1.434       .  S
C456        C457   1.409       .  A
C456        H461   1.073       .  S
C457        C458   1.417       .  A
C458        N459   1.433       .  S
N459        H463   1.045       .  S
N459        H464   1.046       .  S
N462        H465   1.046       .  S
N462        H466   1.046       .  S
C467        C468   1.404       .  A
C467        C472   1.415       .  A
C467       H1518   1.084       .  S
C468        C469   1.414       .  A
C469        C470   1.407       .  A
C469        N998   1.439       .  S
C470        C471   1.402       .  A
C470        H475   1.084       .  S
C471        C472   1.413       .  A
C472        N473   1.437       .  S
N473        H477   1.046       .  S
N473        H478   1.045       .  S
H474       C1511   1.083       .  S
N476        C991   1.439       .  S
N476        H479   1.046       .  S
N476        H480   1.044       .  S
C481        C482   1.399       .  A
C481        C486   1.398       .  A
C481        H488   1.084       .  S
C482        C483   1.413       .  A
C483        C484   1.413       .  A
C483        N490   1.438       .  S
C484        C485   1.413       .  A
C484        H489   1.076       .  S
C485        C486   1.418       .  A
C486        N487   1.433       .  S
N487        H491   1.045       .  S
N487        H492   1.046       .  S
N490        H493   1.045       .  S
N490        H494   1.045       .  S
C495        C500   1.403       .  A
C495       C1540   1.403       .  A
C495       H1546   1.084       .  S
C496       C1539   1.403       .  A
C496       C1541   1.413       .  A
C497        C498   1.400       .  A
C497       C1540   1.421       .  A
C497        N504   1.441   1_455  S
C498        C499   1.400       .  A
C498        H503   1.084       .  S
C499        C500   1.409       .  A
C500        N501   1.432       .  S
N501        H505   1.046       .  S
N501        H506   1.045       .  S
H502       C1539   1.084       .  S
N504        H508   1.046   1_655  S
N504       H1551   1.041       .  S
H507       N1548   1.046       .  S
C509        C510   1.403       .  A
C509        C514   1.408       .  A
C509        H516   1.084       .  S
C510        C511   1.413       .  A
C511        C512   1.401       .  A
C511        N518   1.438       .  S
C512        C513   1.400       .  A
C512        H517   1.084       .  S
C513        C547   1.475       .  S
C513        C514   1.413       .  A
C514       N1037   1.438       .  S
N515       C1036   1.437   1_545  S
N515        H519   1.046       .  S
N515        H520   1.046       .  S
N518        H521   1.045       .  S
N518        H522   1.046       .  S
Zr523       O524   2.438       .  S
Zr523       O525   2.428       .  S
Zr523       O526   2.445       .  S
Zr523       O529   2.430       .  S
Zr523       O531   2.384       .  S
Zr523       O532   2.382       .  S
Zr523       O533   2.405       .  S
Zr523       O534   2.405       .  S
O524        H580   0.990       .  S
O524        H588   0.990       .  S
O525        C545   1.284       .  A
O526        C547   1.285       .  A
O527       Zr537   2.438       .  S
O527        C546   1.286       .  A
O528       Zr536   2.419       .  S
O528        C547   1.282       .  A
O529        C546   1.284       .  A
O530       Zr538   2.409       .  S
O530        C545   1.280       .  A
O531       Zr536   2.386       .  S
O531       Zr538   2.377       .  S
O532       Zr537   2.373       .  S
O532       Zr538   2.375       .  S
O532        H567   0.965       .  S
O533       Zr536   2.391       .  S
O533       Zr553   2.396       .  S
O533        H570   0.966       .  S
O534       Zr537   2.379       .  S
O534       Zr553   2.390       .  S
Zr535       O560   2.440       .  S
Zr535       O554   2.453       .  S
Zr535       O562   2.481       .  S
Zr535       O550   2.475       .  S
Zr535       O541   2.399       .  S
Zr535       O542   2.413       .  S
Zr535       O543   2.386       .  S
Zr535       O544   2.391       .  S
Zr536       O555   2.439       .  S
Zr536       O548   2.437       .  S
Zr536       O549   2.404       .  S
Zr536       O542   2.401       .  S
Zr536       O543   2.389       .  S
Zr537       O539   2.438       .  S
Zr537       O561   2.438       .  S
Zr537       O563   2.399       .  S
Zr537       O541   2.399       .  S
Zr537       O544   2.391       .  S
Zr538       O564   2.436       .  S
Zr538       O565   2.437       .  S
Zr538       O540   2.440       .  S
Zr538       O541   2.387       .  S
Zr538       O542   2.395       .  S
O539        H576   0.990       .  S
O540        H571   0.990       .  S
O540        H585   0.990       .  S
O542        H568   0.967       .  S
O543       Zr553   2.382       .  S
O544       Zr553   2.382       .  S
O544        H569   0.965       .  S
C545        C976   1.485       .  S
C546       C1004   1.488       .  S
O548        H584   0.990       .  S
O549        C551   1.279       .  A
O550        C551   1.290       .  A
C551        C993   1.476       .  S
O552       Zr553   2.440       .  S
O552        H581   0.990       .  S
Zr553       O556   2.436       .  S
Zr553       O557   2.440       .  S
Zr553       O558   2.408       .  S
O554        C559   1.287       .  A
O555        H572   0.990       .  S
O555        H587   0.990       .  S
O556        H573   0.989       .  S
O557        H577   0.990       .  S
O557        H586   0.989       .  S
O558        C559   1.280       .  A
C559       C1018   1.477       .  S
O560        H579   0.990       .  S
O560        H583   0.990       .  S
O561        H575   0.990       .  S
O561        H582   0.990       .  S
O562        C566   1.294       .  A
O563        C566   1.280       .  A
O564        H574   0.990       .  S
O565        H578   0.990       .  S
C566        C962   1.502       .  S
C589        C590   1.541       .  S
C589        C595   1.540       .  S
C589        C593   1.531       .  S
C589       C1007   1.542       .  S
C590        H597   1.082       .  S
C590        C591   1.370       .  D
C591        C592   1.540       .  S
C591       C1021   1.479       .  S
C592        C596   1.538       .  S
C592        C594   1.541       .  S
C592        H598   1.111       .  S
C593        H599   1.087       .  S
C593        C594   1.365       .  D
C594        C696   1.483       .  S
C595        H600   1.086       .  S
C595        C596   1.368       .  D
C596       C1032   1.490       .  S
C601        C607   1.538       .  S
C601        C605   1.524       .  S
C601        C979   1.528       .  S
C602        H609   1.087       .  S
C602       C1647   1.360       .  D
C603        C604   1.555       .  S
C603       C1646   1.362       .  D
C603        C965   1.497       .  S
C604       C1130   1.543   1_565  S
C604        H610   1.109       .  S
C605        H611   1.086       .  S
C605       C1650   1.366       .  D
C606       C1649   1.365       .  D
C606        C990   1.486       .  S
C607        H612   1.079       .  S
C607        C608   1.361       .  D
C608       C1126   1.549   1_455  S
Zr613       O614   2.440       .  S
Zr613       O615   2.442       .  S
Zr613      O1660   2.498       .  S
Zr613      O1665   2.393       .  S
Zr613      O1667   2.411       .  S
O614        H670   0.990       .  S
O614        H678   0.990       .  S
O615        C635   1.286       .  A
O616      Zr1657   2.500   1_455  S
O616        C637   1.296       .  A
O617       Zr627   2.396       .  S
O617        C636   1.278       .  A
O618       Zr626   2.399       .  S
O618        C637   1.278       .  A
O619        C636   1.294   1_545  A
O620       Zr628   2.419       .  S
O620        C635   1.281       .  A
O621      Zr1657   2.389   1_455  S
O621       Zr626   2.389       .  S
O621      Zr1672   2.382       .  S
O622       Zr627   2.370   1_545  S
O622        H657   0.965       .  S
O623      Zr1657   2.410   1_455  S
O623       Zr626   2.396       .  S
O623        H660   0.966       .  S
O624       Zr627   2.387       .  S
O624      Zr1687   2.390       .  S
Zr625       O650   2.443       .  S
Zr625       O644   2.435       .  S
Zr625       O652   2.489   1_455  S
Zr625      O1675   2.403   1_455  S
Zr625      O1678   2.389   1_455  S
Zr626       O645   2.437       .  S
Zr626       O638   2.437       .  S
Zr626       O639   2.403       .  S
Zr626       O632   2.391       .  S
Zr626       O633   2.377       .  S
Zr627       O629   2.435       .  S
Zr627       O651   2.438       .  S
Zr627       O653   2.395       .  S
Zr627       O631   2.389       .  S
Zr627       O634   2.383       .  S
Zr628      O1699   2.433       .  S
Zr628      O1674   2.439       .  S
Zr628      O1665   2.383       .  S
Zr628      O1676   2.397       .  S
O629        H666   0.990       .  S
O630      Zr1672   2.438       .  S
O630        H661   0.990       .  S
O630        H675   0.990       .  S
O631      Zr1669   2.409       .  S
O632      Zr1672   2.400       .  S
O632        H658   0.967       .  S
O634      Zr1669   2.393       .  S
O634      Zr1687   2.376       .  S
O634        H659   0.966       .  S
C635        C909   1.472       .  S
C636        C920   1.487       .  S
C637        C934   1.489       .  S
O638        H674   0.990       .  S
O639        C641   1.279       .  A
O640        C641   1.291       .  A
C641        C878   1.488       .  S
O642       Zr643   2.438   1_655  S
O642        H671   0.990       .  S
Zr643      O1691   2.438   1_455  S
Zr643       O648   2.418       .  S
Zr643      O1668   2.390   1_455  S
Zr643      O1678   2.377   1_455  S
O644        C649   1.287       .  A
O645        H662   0.990       .  S
O645        H677   0.989       .  S
O647      Zr1687   2.438       .  S
O647       H1711   0.990       .  S
O647        H676   0.990       .  S
O648        C649   1.282       .  A
C649        C948   1.484       .  S
O650        H669   0.990       .  S
O650        H673   0.990       .  S
O651        H665   0.990       .  S
O651        H672   0.990       .  S
O652       C1700   1.295       .  A
O653        C656   1.278       .  A
O655      Zr1672   2.435       .  S
O655        H668   0.990       .  S
C656       O1696   1.294       .  A
C656        C892   1.484       .  S
H667       O1691   0.990       .  S
C679        C680   1.538       .  S
C679        C685   1.554       .  S
C679        C683   1.535       .  S
C679        C881   1.540       .  S
C680        H687   1.081       .  S
C680        C681   1.366       .  D
C681        C682   1.549       .  S
C681        C788   1.493       .  S
C682        C686   1.530       .  S
C682        C684   1.529       .  S
C682        H688   1.105       .  S
C683        H689   1.086       .  S
C683        C684   1.361       .  D
C684        C906   1.475       .  S
C685        H690   1.084       .  S
C685        C686   1.374       .  D
C686        C895   1.498       .  S
C691        C692   1.543       .  S
C691        C697   1.556       .  S
C691        C695   1.528       .  S
C691        C923   1.556       .  S
C692        H699   1.078       .  S
C692        C693   1.369       .  D
C693        C694   1.543       .  S
C693        C951   1.489       .  S
C694        C698   1.529       .  S
C694        C696   1.544       .  S
C694        H700   1.111       .  S
C695        H701   1.087       .  S
C695        C696   1.362       .  D
C697        H702   1.084       .  S
C697        C698   1.374       .  D
C698        C937   1.493       .  S
Zr703       O704   2.440       .  S
Zr703       O705   2.425       .  S
Zr703       O706   2.449       .  S
Zr703       O709   2.452       .  S
Zr703       O711   2.391       .  S
Zr703       O712   2.382       .  S
Zr703       O713   2.405       .  S
Zr703       O714   2.407       .  S
O704        H760   0.991       .  S
O704        H768   0.990       .  S
O705        C725   1.284       .  A
O706        C727   1.285       .  A
O707       Zr717   2.439       .  S
O707        C726   1.285       .  A
O708       Zr716   2.417       .  S
O708        C727   1.282       .  A
O709        C726   1.288       .  A
O710       Zr718   2.393       .  S
O710        C725   1.277       .  A
O711       Zr716   2.388       .  S
O711       Zr718   2.378       .  S
O712       Zr717   2.368       .  S
O712       Zr718   2.381       .  S
O712        H747   0.965       .  S
O713       Zr716   2.394       .  S
O713       Zr733   2.392       .  S
O713        H750   0.966       .  S
O714       Zr717   2.383       .  S
O714       Zr733   2.403       .  S
Zr715       O740   2.440       .  S
Zr715       O734   2.430       .  S
Zr715       O742   2.463       .  S
Zr715       O730   2.476       .  S
Zr715       O721   2.400       .  S
Zr715       O722   2.406       .  S
Zr715       O723   2.383       .  S
Zr715       O724   2.396       .  S
Zr716       O735   2.439       .  S
Zr716       O728   2.436       .  S
Zr716       O729   2.404       .  S
Zr716       O722   2.398       .  S
Zr716       O723   2.389       .  S
Zr717       O719   2.435       .  S
Zr717       O741   2.441       .  S
Zr717       O743   2.391       .  S
Zr717       O721   2.399       .  S
Zr717       O724   2.396       .  S
Zr718       O744   2.436       .  S
Zr718       O745   2.436       .  S
Zr718       O720   2.436       .  S
Zr718       O721   2.383       .  S
Zr718       O722   2.388       .  S
O719        H756   0.990       .  S
O720        H751   0.990       .  S
O720        H765   0.990       .  S
O722        H748   0.967       .  S
O723       Zr733   2.371       .  S
O724       Zr733   2.381       .  S
O724        H749   0.966       .  S
C725        C864   1.474       .  S
C726        C822   1.491       .  S
C727        C808   1.483       .  S
O728        H764   0.990       .  S
O729        C731   1.279       .  A
O730        C731   1.291       .  A
C731        C839   1.481       .  S
O732       Zr733   2.437       .  S
O732        H761   0.990       .  S
Zr733       O736   2.438       .  S
Zr733       O737   2.440       .  S
Zr733       O738   2.426       .  S
O734        C739   1.283       .  A
O735        H752   0.991       .  S
O735        H767   0.990       .  S
O736        H753   0.990       .  S
O737        H757   0.990       .  S
O737        H766   0.990       .  S
O738        C739   1.284       .  A
C739        C797   1.493       .  S
O740        H759   0.990       .  S
O740        H763   0.990       .  S
O741        H755   0.990       .  S
O741        H762   0.990       .  S
O742        C746   1.291       .  A
O743        C746   1.278       .  A
O744        H754   0.990       .  S
O745        H758   0.990       .  S
C769       C1814   1.531   1_455  S
C769        C773   1.541       .  S
C769        C825   1.550       .  S
C770       C1813   1.530       .  S
C770        H777   1.086       .  S
C770        C771   1.369       .  D
C771        C794   1.480       .  S
C772       C1820   1.537       .  S
C772       C1296   1.540       .  S
C772        H778   1.109       .  S
C773        H779   1.083       .  S
C773        C774   1.369       .  D
C774       C1294   1.542   1_465  S
C775        H780   1.086       .  S
C775        C776   1.365       .  D
C776       C1816   1.537   1_455  S
C776        C811   1.486       .  S
C781        C782   1.524       .  S
C781        C787   1.540       .  S
C781        C785   1.531       .  S
C781        C867   1.525       .  S
C782        H789   1.087       .  S
C782        C783   1.357       .  D
C783        C784   1.546       .  S
C783        C850   1.490       .  S
C784        C788   1.551       .  S
C784        C786   1.546       .  S
C784        H790   1.106       .  S
C785        H791   1.082       .  S
C785        C786   1.362       .  D
C786        C836   1.480       .  S
C787        H792   1.079       .  S
C787        C788   1.367       .  D
C793        C794   1.400       .  A
C793        C798   1.404       .  A
C793        H800   1.084       .  S
C794        C795   1.411       .  A
C795        C796   1.399       .  A
C795        N802   1.433       .  S
C796        C797   1.410       .  A
C796        H801   1.084       .  S
C797        C798   1.419       .  A
C798        N799   1.438       .  S
N799        H803   1.046       .  S
N799        H804   1.046       .  S
N802        H805   1.045       .  S
N802        H806   1.043       .  S
C807        C808   1.405       .  A
C807        C812   1.399       .  A
C807        H814   1.084       .  S
C808        C809   1.422       .  A
C809        C810   1.411       .  A
C809        N816   1.439       .  S
C810        C811   1.405       .  A
C810       H1859   1.084   1_455  S
C811        C812   1.406       .  A
C812        N813   1.437       .  S
N813        H817   1.045       .  S
N813        H818   1.045       .  S
H815       C1854   1.084       .  S
N816        H819   1.041       .  S
N816        H820   1.046   1_455  S
C821        C822   1.403       .  A
C821        C826   1.409       .  A
C821        H828   1.084       .  S
C822        C823   1.410       .  A
C823        C824   1.413       .  A
C823        N830   1.438       .  S
C824        C825   1.416       .  A
C824        H829   1.078       .  S
C825        C826   1.421       .  A
C826        N827   1.439       .  S
N827        H831   1.046       .  S
N827        H832   1.045       .  S
N830        H833   1.045       .  S
N830        H834   1.046       .  S
C835        C836   1.403       .  A
C835        C840   1.413       .  A
C835        H842   1.084       .  S
C836        C837   1.405       .  A
C837        C838   1.401       .  A
C837        N844   1.433       .  S
C838        C839   1.405       .  A
C838        H843   1.084       .  S
C839        C840   1.413       .  A
C840        N841   1.437       .  S
N841        H845   1.046       .  S
N841        H846   1.046       .  S
N844        H847   1.045       .  S
N844        H848   1.046       .  S
C849        C850   1.409       .  A
C849        C854   1.409       .  A
C849        H856   1.084       .  S
C850        C851   1.401       .  A
C851        C852   1.404       .  A
C851        N858   1.432       .  S
C852        C853   1.417       .  A
C852        H857   1.083       .  S
C853        C854   1.415       .  A
N855        H860   1.046       .  S
N858        H861   1.045       .  S
N858        H862   1.045       .  S
C863       C1908   1.398       .  A
C863        C868   1.393       .  A
C863        H870   1.084       .  S
C864       C1907   1.399   1_455  A
C864        C865   1.411   1_455  A
C865       C1910   1.397       .  A
C865        N872   1.440   1_655  S
C866       C1909   1.396       .  A
C866        C867   1.412       .  A
C866        H871   1.079       .  S
C867        C868   1.427       .  A
C868        N869   1.433       .  S
N869        H873   1.042       .  S
N869        H874   1.044       .  S
N872        H875   1.046       .  S
N872        H876   1.046       .  S
C877        C878   1.401       .  A
C877        C882   1.415       .  A
C877        H884   1.084       .  S
C878        C879   1.410       .  A
C879        C880   1.401       .  A
C879        N886   1.433       .  S
C880        C881   1.406       .  A
C880        H885   1.082       .  S
C881        C882   1.427       .  A
C882        N883   1.437       .  S
N883        H887   1.045       .  S
N883        H888   1.046       .  S
N886        H889   1.045       .  S
N886        H890   1.046       .  S
C891        C892   1.405       .  A
C891        C896   1.404       .  A
C891        H898   1.084       .  S
C892        C893   1.411       .  A
C893        C894   1.417       .  A
C893        N900   1.437       .  S
C894        C895   1.411       .  A
C894        H899   1.083       .  S
C895        C896   1.411       .  A
C896        N897   1.438       .  S
N897        H901   1.045       .  S
N897        H902   1.046       .  S
N900        H903   1.046       .  S
N900        H904   1.046       .  S
C905        C906   1.403       .  A
C905        C910   1.401       .  A
C905        H912   1.084       .  S
C906        C907   1.403       .  A
C907        C908   1.401       .  A
C907        N914   1.433       .  S
C908        C909   1.407       .  A
C908        H913   1.084       .  S
C909        C910   1.416       .  A
C910        N911   1.439       .  S
N911       H1959   1.046       .  S
N911       H1960   1.042       .  S
N914        H917   1.045       .  S
N914        H918   1.046       .  S
H915       N1955   1.046       .  S
H916       N1955   1.043       .  S
C919        C920   1.402       .  A
C919        C924   1.400       .  A
C919        H926   1.085       .  S
C920        C921   1.407       .  A
C921        C922   1.407       .  A
C921        N928   1.433   1_565  S
C922        C923   1.422       .  A
C922        H927   1.074       .  S
C923        C924   1.430       .  A
C924        N925   1.435       .  S
N925        H929   1.041       .  S
N925        H930   1.041       .  S
C933        C934   1.402       .  A
C933        C938   1.416       .  A
C933        H940   1.083       .  S
C934        C935   1.415       .  A
C935        C936   1.403       .  A
C935        N942   1.432       .  S
C936        C937   1.398       .  A
C936        H941   1.084       .  S
C937        C938   1.418       .  A
C938        N939   1.435       .  S
N939        H943   1.046       .  S
N939        H944   1.043       .  S
N942        H945   1.046       .  S
N942        H946   1.045       .  S
C947        C948   1.402       .  A
C947        C952   1.402       .  A
C947        H954   1.084       .  S
C948        C949   1.413       .  A
C949        C950   1.404       .  A
C949        N956   1.432       .  S
C950        C951   1.402       .  A
C950        H955   1.084       .  S
C951        C952   1.420       .  A
C952        N953   1.440       .  S
N953        H957   1.045       .  S
N953        H958   1.044       .  S
N956        H959   1.046       .  S
N956        H960   1.046       .  S
C961        C962   1.416       .  A
C961        C966   1.409       .  A
C961        H968   1.083       .  S
C962        C963   1.415       .  A
C963        C964   1.402       .  A
C963        N970   1.431       .  S
C964        C965   1.411       .  A
C964       H2013   1.084       .  S
C965        C966   1.406       .  A
C966        N967   1.437       .  S
N967        H971   1.045       .  S
N967        H972   1.044       .  S
H969       C2008   1.084   1_455  S
N970        H973   1.045       .  S
N970       H2018   1.045       .  S
H974       N2014   1.044       .  S
C975        C976   1.405       .  A
C975        C980   1.402       .  A
C975        H982   1.083       .  S
C976        C977   1.414       .  A
C977        C978   1.394       .  A
C977        N984   1.434       .  S
C978        C979   1.406       .  A
C978        H983   1.075       .  S
C979        C980   1.416       .  A
C980        N981   1.433       .  S
N981        H985   1.046       .  S
N981        H986   1.045       .  S
N984        H987   1.046       .  S
N984        H988   1.046       .  S
C989        C990   1.404       .  A
C989        C994   1.413       .  A
C989       H2040   1.084       .  S
C990        C991   1.413       .  A
C991        C992   1.403       .  A
C992        C993   1.401       .  A
C992        H997   1.084       .  S
C993        C994   1.411       .  A
C994        N995   1.437       .  S
N995        H999   1.046       .  S
N995       H1000   1.045       .  S
H996       C2033   1.083       .  S
N998       H1001   1.045       .  S
N998       H1002   1.044       .  S
C1003      C1004   1.400       .  A
C1003      C1008   1.400       .  A
C1003      H1010   1.084       .  S
C1004      C1005   1.415       .  A
C1005      C1006   1.414       .  A
C1005      N1012   1.439       .  S
C1006      C1007   1.414       .  A
C1006      H1011   1.077       .  S
C1007      C1008   1.417       .  A
C1008      N1009   1.433       .  S
N1009      H1013   1.046       .  S
N1009      H1014   1.045       .  S
N1012      H1015   1.045       .  S
N1012      H1016   1.046       .  S
C1017      C2062   1.402       .  A
C1017      C1022   1.403       .  A
C1017      H2068   1.084       .  S
C1018      C2061   1.403       .  A
C1018      C2063   1.422       .  A
C1019      C2062   1.420       .  A
C1019      C1020   1.398       .  A
C1019      N1026   1.441   1_455  S
C1020      C1021   1.400       .  A
C1020      H1025   1.084       .  S
C1021      C1022   1.409       .  A
C1022      N1023   1.432       .  S
N1023      H1027   1.046       .  S
N1023      H1028   1.045       .  S
H1024      C2061   1.084       .  S
N1026      H2073   1.041       .  S
N1026      H1030   1.046   1_655  S
H1029      N2070   1.041       .  S
C1031      C1032   1.404       .  A
C1031      C1036   1.410       .  A
C1031      H1038   1.083       .  S
C1032      C1033   1.413       .  A
C1033      C1034   1.403       .  A
C1033      N1040   1.438       .  S
C1034      C1035   1.402       .  A
C1034      H1039   1.084       .  S
C1035      C1036   1.414       .  A
N1037      H1041   1.046       .  S
N1037      H1042   1.046       .  S
N1040      H1043   1.045       .  S
N1040      H1044   1.046       .  S
Zr1045     O1046   2.437       .  S
Zr1045     O1047   2.423       .  S
Zr1045     O1048   2.441       .  S
Zr1045     O1051   2.433       .  S
Zr1045     O1053   2.382       .  S
Zr1045     O1054   2.381       .  S
Zr1045     O1055   2.400       .  S
Zr1045     O1056   2.402       .  S
O1046      H1102   0.990       .  S
O1046      H1110   0.990       .  S
O1047      C1067   1.284       .  A
O1048      C1069   1.285       .  A
O1049     Zr1059   2.438       .  S
O1049      C1068   1.287       .  A
O1050     Zr1058   2.421       .  S
O1050      C1069   1.283       .  A
O1051      C1068   1.284       .  A
O1052     Zr1060   2.401       .  S
O1052      C1067   1.278       .  A
O1053     Zr1058   2.381       .  S
O1053     Zr1060   2.372       .  S
O1054     Zr1059   2.373       .  S
O1054     Zr1060   2.378       .  S
O1054      H1089   0.965       .  S
O1055     Zr1058   2.389       .  S
O1055     Zr1075   2.393       .  S
O1055      H1092   0.966       .  S
O1056     Zr1059   2.376       .  S
O1056     Zr1075   2.391       .  S
Zr1057     O1082   2.439       .  S
Zr1057     O1076   2.439       .  S
Zr1057     O1084   2.488       .  S
Zr1057     O1072   2.486       .  S
Zr1057     O1063   2.400       .  S
Zr1057     O1064   2.408       .  S
Zr1057     O1065   2.387       .  S
Zr1057     O1066   2.392       .  S
Zr1058     O1077   2.435       .  S
Zr1058     O1070   2.435       .  S
Zr1058     O1071   2.407       .  S
Zr1058     O1064   2.398       .  S
Zr1058     O1065   2.390       .  S
Zr1059     O1061   2.437       .  S
Zr1059     O1083   2.438       .  S
Zr1059     O1085   2.401       .  S
Zr1059     O1063   2.402       .  S
Zr1059     O1066   2.388       .  S
Zr1060     O1086   2.434       .  S
Zr1060     O1087   2.436       .  S
Zr1060     O1062   2.439       .  S
Zr1060     O1063   2.388       .  S
Zr1060     O1064   2.388       .  S
O1061      H1098   0.990       .  S
O1062      H1093   0.990       .  S
O1062      H1107   0.990       .  S
O1064      H1090   0.967       .  S
O1065     Zr1075   2.380       .  S
O1066     Zr1075   2.382       .  S
O1066      H1091   0.965       .  S
C1067      C1498   1.480       .  S
C1068      C1526   1.491       .  S
C1069      C2079   1.474   1_545  S
O1070      H1106   0.990       .  S
O1071      C1073   1.279       .  A
O1072      C1073   1.293       .  A
C1073      C1515   1.481       .  S
O1074     Zr1075   2.436       .  S
O1074      H1103   0.990       .  S
Zr1075     O1078   2.436       .  S
Zr1075     O1079   2.440       .  S
Zr1075     O1080   2.411       .  S
O1076      C1081   1.285       .  A
O1077      H1094   0.990       .  S
O1077      H1109   0.990       .  S
O1078      H1095   0.990       .  S
O1079      H1099   0.990       .  S
O1079      H1108   0.990       .  S
O1080      C1081   1.280       .  A
C1081      C1540   1.474   1_655  S
O1082      H1101   0.990       .  S
O1082      H1105   0.990       .  S
O1083      H1097   0.990       .  S
O1083      H1104   0.990       .  S
O1084      C1088   1.295       .  A
O1085      C1088   1.280       .  A
O1086      H1096   0.990       .  S
O1087      H1100   0.990       .  S
C1088      C1484   1.507       .  S
C1111      C1112   1.546       .  S
C1111      C1117   1.538       .  S
C1111      C1115   1.531       .  S
C1111      C1529   1.540       .  S
C1112      H1119   1.082       .  S
C1112      C1113   1.372       .  D
C1113      C1114   1.535       .  S
C1113      C1543   1.479       .  S
C1114      C1118   1.537       .  S
C1114      C1116   1.534       .  S
C1114      H1120   1.111       .  S
C1115      H1121   1.087       .  S
C1115      C1116   1.365       .  D
C1116      C1218   1.475       .  S
C1117      H1122   1.085       .  S
C1117      C1118   1.366       .  D
C1118      C1554   1.487       .  S
C1123      C1646   1.530   1_545  S
C1123      C1129   1.535       .  S
C1123      C1127   1.524       .  S
C1123      C1501   1.522       .  S
C1124      C1645   1.529       .  S
C1124      H1131   1.087       .  S
C1125      C1126   1.552       .  S
C1125      C1487   1.494       .  S
C1126      C1650   1.560   1_655  S
C1126      H1132   1.109       .  S
C1127      H1133   1.087       .  S
C1128      C1648   1.557   1_445  S
C1128      C1512   1.491   1_455  S
C1129      H1134   1.080       .  S
C1129      C1130   1.362       .  D
C1130      C1818   1.480   1_546  S
Zr1135     O1136   2.438       .  S
Zr1135     O1137   2.435       .  S
Zr1135     O1663   2.479       .  S
Zr1135     O1666   2.389       .  S
Zr1135     O1668   2.410   1_545  S
O1136      H1192   0.990       .  S
O1136      H1200   0.990       .  S
O1137      C1157   1.284       .  A
O1138      C1159   1.296       .  A
O1139     Zr1149   2.388       .  S
O1139      C1158   1.278       .  A
O1140     Zr1148   2.400       .  S
O1140      C1159   1.279       .  A
O1141     Zr1657   2.477       .  S
O1141      C1158   1.293       .  A
O1142     Zr1150   2.416   1_655  S
O1142      C1157   1.281       .  A
O1143     Zr1148   2.388       .  S
O1144     Zr1657   2.389       .  S
O1144     Zr1149   2.369       .  S
O1144     Zr1672   2.372   1_655  S
O1144      H1179   0.965       .  S
O1145     Zr1148   2.395       .  S
O1145     Zr1687   2.388   1_545  S
O1145      H1182   0.966       .  S
O1146     Zr1657   2.413       .  S
O1146     Zr1149   2.386       .  S
Zr1147     O1172   2.447       .  S
Zr1147     O1166   2.438       .  S
Zr1147     O1174   2.493       .  S
Zr1147     O1684   2.478       .  S
Zr1147     O1676   2.417       .  S
Zr1147     O1677   2.382       .  S
Zr1148     O1167   2.435       .  S
Zr1148     O1160   2.434       .  S
Zr1148     O1161   2.407       .  S
Zr1148     O1154   2.386       .  S
Zr1148     O1155   2.375       .  S
Zr1149     O1151   2.435       .  S
Zr1149     O1173   2.439       .  S
Zr1149     O1175   2.381       .  S
Zr1149     O1153   2.389       .  S
Zr1149     O1156   2.380       .  S
Zr1150     O1698   2.436   1_455  S
Zr1150     O1666   2.373   1_455  S
Zr1150     O1675   2.398   1_445  S
O1151      H1188   0.990       .  S
O1152      H1183   0.990       .  S
O1152      H1197   0.990       .  S
O1153     Zr1672   2.399   1_655  S
O1154     Zr1669   2.411   1_545  S
O1154      H1180   0.967       .  S
O1155     Zr1669   2.382   1_545  S
O1155     Zr1687   2.372   1_545  S
O1156      H1181   0.966       .  S
C1157      C1431   1.467       .  S
C1158      C1442   1.483       .  S
C1159      C1456   1.492       .  S
O1160      H1196   0.990       .  S
O1161      C1163   1.281       .  A
O1162     Zr1669   2.476   1_545  S
O1162      C1163   1.292       .  A
C1163      C1400   1.491       .  S
O1164     Zr1165   2.437       .  S
O1164      H1193   0.990       .  S
Zr1165     O1690   2.436       .  S
Zr1165     O1170   2.413       .  S
Zr1165     O1667   2.387       .  S
Zr1165     O1677   2.368       .  S
O1166      C1171   1.288       .  A
O1167      H1184   0.990       .  S
O1167      H1199   0.989       .  S
O1168     Zr1687   2.436   1_545  S
O1168      H1707   0.990       .  S
O1169      H1198   0.990       .  S
O1170      C1171   1.280       .  A
C1171      C1470   1.488       .  S
O1172      H1191   0.990       .  S
O1172      H1195   0.990       .  S
O1173      H1187   0.990       .  S
O1173      H1194   0.990       .  S
O1175      C1178   1.275       .  A
O1176     Zr1672   2.436   1_655  S
O1176      H1708   0.990       .  S
O1177      H1190   0.990       .  S
C1178      C1414   1.481       .  S
H1185      O1690   0.990       .  S
H1186      O1698   0.990       .  S
C1201      C1202   1.540       .  S
C1201      C1207   1.554       .  S
C1201      C1205   1.536       .  S
C1201      C1403   1.542       .  S
C1202      H1209   1.081       .  S
C1202      C1203   1.366       .  D
C1203      C1204   1.549       .  S
C1203      C1310   1.496       .  S
C1204      C1208   1.531       .  S
C1204      C1206   1.528       .  S
C1204      H1210   1.105       .  S
C1205      H1211   1.086       .  S
C1205      C1206   1.363       .  D
C1206      C1428   1.476       .  S
C1207      H1212   1.084       .  S
C1207      C1208   1.373       .  D
C1208      C1417   1.497       .  S
C1213      C1214   1.541       .  S
C1213      C1219   1.560       .  S
C1213      C1217   1.526       .  S
C1213      C1445   1.554       .  S
C1214      H1221   1.079       .  S
C1214      C1215   1.369       .  D
C1215      C1216   1.542       .  S
C1215      C1473   1.489       .  S
C1216      C1220   1.528       .  S
C1216      C1218   1.540       .  S
C1216      H1222   1.111       .  S
C1217      H1223   1.087       .  S
C1217      C1218   1.359       .  D
C1219      H1224   1.084       .  S
C1219      C1220   1.377       .  D
C1220      C1459   1.496       .  S
Zr1225     O1226   2.438       .  S
Zr1225     O1227   2.428       .  S
Zr1225     O1228   2.453       .  S
Zr1225     O1231   2.446       .  S
Zr1225     O1233   2.386       .  S
Zr1225     O1234   2.384       .  S
Zr1225     O1235   2.406       .  S
Zr1225     O1236   2.406       .  S
O1226      H1282   0.990       .  S
O1226      H1290   0.990       .  S
O1227      C1247   1.285       .  A
O1228      C1249   1.288       .  A
O1229     Zr1239   2.430       .  S
O1229      C1248   1.284       .  A
O1230     Zr1238   2.424       .  S
O1230      C1249   1.284       .  A
O1231      C1248   1.288       .  A
O1232     Zr1240   2.391       .  S
O1232      C1247   1.276       .  A
O1233     Zr1238   2.385       .  S
O1233     Zr1240   2.378       .  S
O1234     Zr1239   2.369       .  S
O1234     Zr1240   2.377       .  S
O1234      H1269   0.965       .  S
O1235     Zr1238   2.390       .  S
O1235     Zr1255   2.391       .  S
O1235      H1272   0.966       .  S
O1236     Zr1239   2.379       .  S
O1236     Zr1255   2.398       .  S
Zr1237     O1262   2.439       .  S
Zr1237     O1256   2.431       .  S
Zr1237     O1264   2.477       .  S
Zr1237     O1252   2.483       .  S
Zr1237     O1243   2.396       .  S
Zr1237     O1244   2.405       .  S
Zr1237     O1245   2.379       .  S
Zr1237     O1246   2.394       .  S
Zr1238     O1257   2.438       .  S
Zr1238     O1250   2.437       .  S
Zr1238     O1251   2.402       .  S
Zr1238     O1244   2.401       .  S
Zr1238     O1245   2.383       .  S
Zr1239     O1241   2.435       .  S
Zr1239     O1263   2.438       .  S
Zr1239     O1265   2.392       .  S
Zr1239     O1243   2.396       .  S
Zr1239     O1246   2.389       .  S
Zr1240     O1266   2.438       .  S
Zr1240     O1267   2.434       .  S
Zr1240     O1242   2.437       .  S
Zr1240     O1243   2.384       .  S
Zr1240     O1244   2.387       .  S
O1241      H1278   0.990       .  S
O1242      H1273   0.990       .  S
O1242      H1287   0.990       .  S
O1244      H1270   0.967       .  S
O1245     Zr1255   2.366       .  S
O1246     Zr1255   2.379       .  S
O1246      H1271   0.966       .  S
C1247      C1386   1.474       .  S
C1248      C1344   1.483       .  S
C1249      C1330   1.487       .  S
O1250      H1286   0.990       .  S
O1251      C1253   1.278       .  A
O1252      C1253   1.293       .  A
C1253      C1361   1.481       .  S
O1254     Zr1255   2.438       .  S
O1254      H1283   0.990       .  S
Zr1255     O1258   2.437       .  S
Zr1255     O1259   2.436       .  S
Zr1255     O1260   2.423       .  S
O1256      C1261   1.285       .  A
O1257      H1274   0.990       .  S
O1257      H1289   0.990       .  S
O1258      H1275   0.990       .  S
O1259      H1279   0.990       .  S
O1259      H1288   0.990       .  S
O1260      C1261   1.284       .  A
C1261      C1319   1.492       .  S
O1262      H1281   0.990       .  S
O1262      H1285   0.990       .  S
O1263      H1277   0.990       .  S
O1263      H1284   0.990       .  S
O1264      C1268   1.294       .  A
O1265      C1268   1.279       .  A
O1266      H1276   0.990       .  S
O1267      H1280   0.990       .  S
C1268      C1897   1.500       .  S
C1291      C1819   1.539       .  S
C1291      C1295   1.543       .  S
C1291      C1347   1.546       .  S
C1292      H1299   1.086       .  S
C1292      C1293   1.370       .  D
C1293      C1816   1.541       .  S
C1293      C1316   1.481       .  S
C1294      C1815   1.544   1_545  S
C1294      H1300   1.108       .  S
C1295      H1301   1.083       .  S
C1295      C1296   1.370       .  D
C1296      C1652   1.483   1_554  S
C1297      C1813   1.543   1_545  S
C1297      H1302   1.086       .  S
C1297      C1298   1.365       .  D
C1298      C1333   1.489       .  S
C1303      C1304   1.526       .  S
C1303      C1309   1.542       .  S
C1303      C1307   1.528       .  S
C1303      C1389   1.527       .  S
C1304      H1311   1.088       .  S
C1304      C1305   1.356       .  D
C1305      C1306   1.548       .  S
C1305      C1372   1.490       .  S
C1306      C1310   1.553       .  S
C1306      C1308   1.549       .  S
C1306      H1312   1.107       .  S
C1307      H1313   1.083       .  S
C1307      C1308   1.362       .  D
C1308      C1358   1.482       .  S
C1309      H1314   1.078       .  S
C1309      C1310   1.367       .  D
C1315      C1316   1.402       .  A
C1315      C1320   1.405       .  A
C1315      H1322   1.084       .  S
C1316      C1317   1.410       .  A
C1317      C1318   1.398       .  A
C1317      N1324   1.433       .  S
C1318      C1319   1.410       .  A
C1318      H1323   1.084       .  S
C1319      C1320   1.418       .  A
C1320      N1321   1.438       .  S
N1321      H1325   1.046       .  S
N1321      H1326   1.046       .  S
N1324      H1327   1.046       .  S
N1324      H1328   1.042       .  S
C1329      C1330   1.405       .  A
C1329      C1334   1.401       .  A
C1329      H1336   1.084       .  S
C1330      C1331   1.422       .  A
C1331      C1332   1.411       .  A
C1331      N1338   1.439       .  S
C1332      C1333   1.405       .  A
C1333      C1334   1.408       .  A
C1334      N1335   1.437       .  S
N1335      H1339   1.046       .  S
N1335      H1340   1.044       .  S
N1338      H1341   1.041       .  S
N1338      H1342   1.046       .  S
C1343      C1344   1.402       .  A
C1343      C1348   1.408       .  A
C1343      H1350   1.084       .  S
C1344      C1345   1.407       .  A
C1345      C1346   1.410       .  A
C1345      N1352   1.438       .  S
C1346      C1347   1.415       .  A
C1346      H1351   1.078       .  S
C1347      C1348   1.423       .  A
C1348      N1349   1.439       .  S
N1349      H1353   1.046       .  S
N1349      H1354   1.045       .  S
N1352      H1355   1.046       .  S
N1352      H1356   1.046       .  S
C1357      C1358   1.403       .  A
C1357      C1362   1.413       .  A
C1357      H1364   1.084       .  S
C1358      C1359   1.408       .  A
C1359      C1360   1.403       .  A
C1359      N1366   1.433       .  S
C1360      C1361   1.405       .  A
C1360      H1365   1.084       .  S
C1361      C1362   1.412       .  A
C1362      N1363   1.437       .  S
N1363      H1367   1.046       .  S
N1363      H1368   1.046       .  S
N1366      H1369   1.046       .  S
N1366      H1370   1.045       .  S
C1371      C1372   1.408       .  A
C1371      C1376   1.411       .  A
C1371      H1378   1.084       .  S
C1372      C1373   1.401       .  A
C1373      C1374   1.405       .  A
C1373      N1380   1.433       .  S
C1374      C1375   1.418       .  A
C1374      H1379   1.083       .  S
C1375      C1790   1.503   1_545  S
C1375      C1376   1.416       .  A
C1376      N1899   1.437   1_545  S
N1377      C1898   1.438       .  S
N1377      H1903   1.046       .  S
N1377      H1382   1.046       .  S
N1380      H1383   1.045       .  S
N1380      H1384   1.045       .  S
H1381      N1899   1.046   1_545  S
C1385      C1390   1.395       .  A
C1385      H1392   1.084       .  S
C1386      C1387   1.412       .  A
C1387      N1394   1.441       .  S
C1388      C1389   1.410       .  A
C1388      H1393   1.077       .  S
C1389      C1390   1.428       .  A
C1390      N1391   1.434       .  S
N1391      H1395   1.042       .  S
N1391      H1396   1.044       .  S
N1394      H1397   1.046       .  S
N1394      H1398   1.046       .  S
C1399      C1400   1.402       .  A
C1399      C1404   1.416       .  A
C1399      H1406   1.083       .  S
C1400      C1401   1.412       .  A
C1401      C1402   1.401       .  A
C1401      N1408   1.433       .  S
C1402      C1403   1.406       .  A
C1402      H1407   1.081       .  S
C1403      C1404   1.427       .  A
C1404      N1405   1.438       .  S
N1405      H1409   1.045       .  S
N1405      H1410   1.045       .  S
N1408      H1411   1.046       .  S
N1408      H1412   1.046       .  S
C1413      C1414   1.406       .  A
C1413      C1418   1.404       .  A
C1413      H1420   1.084       .  S
C1414      C1415   1.409       .  A
C1415      C1416   1.415       .  A
C1415      N1422   1.437       .  S
C1416      C1417   1.410       .  A
C1416      H1421   1.083       .  S
C1417      C1418   1.411       .  A
C1418      N1419   1.438       .  S
N1419      H1423   1.046       .  S
N1419      H1424   1.046       .  S
N1422      H1425   1.046       .  S
N1422      H1426   1.046       .  S
C1427      C1428   1.405       .  A
C1427      C1432   1.402       .  A
C1427      H1434   1.084       .  S
C1428      C1429   1.403       .  A
C1429      C1430   1.399       .  A
C1429      N1436   1.432       .  S
C1430      C1431   1.405       .  A
C1430      H1435   1.085       .  S
C1431      C1432   1.415       .  A
C1432      N1433   1.439       .  S
N1436      H1439   1.046       .  S
N1436      H1440   1.046       .  S
C1441      C1442   1.401       .  A
C1441      C1446   1.397       .  A
C1441      H1448   1.085       .  S
C1442      C1443   1.407       .  A
C1443      C1444   1.408       .  A
C1443      N1450   1.434       .  S
C1444      C1445   1.423       .  A
C1444      H1449   1.075       .  S
C1445      C1446   1.429       .  A
C1446      N1447   1.435       .  S
N1447      H1451   1.041       .  S
N1447      H1452   1.041       .  S
N1450      H1975   1.046       .  S
N1450      H1976   1.045       .  S
H1453      N1972   1.046       .  S
H1454      N1972   1.045       .  S
C1455      C1456   1.402       .  A
C1455      C1460   1.417       .  A
C1455      H1462   1.083       .  S
C1456      C1457   1.415       .  A
C1457      C1458   1.404       .  A
C1457      N1464   1.432       .  S
C1458      C1459   1.398       .  A
C1458      H1463   1.084       .  S
C1459      C1460   1.418       .  A
C1460      N1461   1.434       .  S
N1461      H1465   1.045       .  S
N1461      H1466   1.042       .  S
N1464      H1467   1.046       .  S
N1464      H1468   1.045       .  S
C1469      C1470   1.402       .  A
C1469      C1474   1.401       .  A
C1469      H1476   1.083       .  S
C1470      C1471   1.416       .  A
C1471      C1472   1.405       .  A
C1471      N1478   1.433       .  S
C1472      C1473   1.402       .  A
C1472      H1477   1.084       .  S
C1473      C1474   1.419       .  A
C1474      N1475   1.440       .  S
N1475      H1479   1.045       .  S
N1475      H1480   1.044       .  S
N1478      H1481   1.046       .  S
N1478      H1482   1.046       .  S
C1483      C1484   1.419       .  A
C1483      C1488   1.411       .  A
C1483      H1490   1.083       .  S
C1484      C1485   1.417       .  A
C1485      C1486   1.401       .  A
C1485      N1492   1.431       .  S
C1486      C1487   1.408       .  A
C1487      C1488   1.406       .  A
C1488      N1489   1.438       .  S
N1489      H1493   1.046       .  S
N1489      H1494   1.045       .  S
N1492      H1495   1.045       .  S
C1497      C1498   1.404       .  A
C1497      C1502   1.397       .  A
C1497      H1504   1.083       .  S
C1498      C1499   1.415       .  A
C1499      C1500   1.394       .  A
C1499      N1506   1.434       .  S
C1500      C1501   1.405       .  A
C1500      H1505   1.076       .  S
C1501      C1502   1.414       .  A
C1502      N1503   1.433       .  S
N1503      H1507   1.045       .  S
N1503      H1508   1.046       .  S
N1506      H1509   1.046       .  S
N1506      H1510   1.046       .  S
C1511      C1512   1.404       .  A
C1511      C1516   1.414       .  A
C1512      C1513   1.414       .  A
C1513      C1514   1.406       .  A
C1513      N2042   1.438   1_655  S
C1514      C1515   1.401       .  A
C1514      H1519   1.084       .  S
C1515      C1516   1.413       .  A
C1516      N1517   1.437       .  S
N1517      H1521   1.046       .  S
N1517      H1522   1.046       .  S
N1520      C2035   1.439   1_455  S
N1520      H1523   1.046       .  S
N1520      H1524   1.045   1_455  S
C1525      C1526   1.401       .  A
C1525      C1530   1.398       .  A
C1525      H1532   1.084       .  S
C1526      C1527   1.415       .  A
C1527      C1528   1.415       .  A
C1527      N1534   1.438       .  S
C1528      C1529   1.413       .  A
C1528      H1533   1.077       .  S
C1529      C1530   1.417       .  A
C1530      N1531   1.434       .  S
N1531      H1535   1.046       .  S
N1531      H1536   1.046       .  S
N1534      H1537   1.046       .  S
N1534      H1538   1.046       .  S
C1539      C1544   1.404       .  A
C1541      C1542   1.401       .  A
C1541      N1548   1.433       .  S
C1542      C1543   1.399       .  A
C1542      H1547   1.084       .  S
C1543      C1544   1.410       .  A
C1544      N1545   1.432       .  S
N1545      H1549   1.045       .  S
N1545      H1550   1.046       .  S
N1548      H1552   1.046       .  S
C1553      C1554   1.405       .  A
C1553      C1558   1.408       .  A
C1553      H1560   1.083       .  S
C1554      C1555   1.414       .  A
C1555      C1556   1.401       .  A
C1555      N1562   1.438       .  S
C1556      C1557   1.401       .  A
C1556      H1561   1.084       .  S
C1557      C1591   1.477       .  S
C1557      C1558   1.412       .  A
C1558      N2081   1.438       .  S
N1559      C2080   1.437   1_545  S
N1559      H1563   1.046   1_545  S
N1559      H1564   1.045       .  S
N1562      H1565   1.045       .  S
N1562      H1566   1.046       .  S
Zr1567     O1568   2.438       .  S
Zr1567     O1569   2.424       .  S
Zr1567     O1570   2.444       .  S
Zr1567     O1573   2.424       .  S
Zr1567     O1575   2.386       .  S
Zr1567     O1576   2.389       .  S
Zr1567     O1577   2.402       .  S
Zr1567     O1578   2.405       .  S
O1568      H1624   0.990       .  S
O1568      H1632   0.990       .  S
O1569      C1589   1.283       .  A
O1570      C1591   1.285       .  A
O1571     Zr1581   2.434       .  S
O1571      C1590   1.285       .  A
O1572     Zr1580   2.419       .  S
O1572      C1591   1.283       .  A
O1573      C1590   1.282       .  A
O1574     Zr1582   2.403       .  S
O1574      C1589   1.278       .  A
O1575     Zr1580   2.386       .  S
O1575     Zr1582   2.374       .  S
O1576     Zr1581   2.372       .  S
O1576     Zr1582   2.375       .  S
O1576      H1611   0.965       .  S
O1577     Zr1580   2.397       .  S
O1577     Zr1597   2.394       .  S
O1577      H1614   0.966       .  S
O1578     Zr1581   2.382       .  S
O1578     Zr1597   2.391       .  S
Zr1579     O1604   2.438       .  S
Zr1579     O1598   2.436       .  S
Zr1579     O1606   2.479       .  S
Zr1579     O1594   2.479       .  S
Zr1579     O1585   2.404       .  S
Zr1579     O1586   2.411       .  S
Zr1579     O1587   2.383       .  S
Zr1579     O1588   2.392       .  S
Zr1580     O1599   2.437       .  S
Zr1580     O1592   2.436       .  S
Zr1580     O1593   2.409       .  S
Zr1580     O1586   2.403       .  S
Zr1580     O1587   2.389       .  S
Zr1581     O1583   2.435       .  S
Zr1581     O1605   2.440       .  S
Zr1581     O1607   2.394       .  S
Zr1581     O1585   2.401       .  S
Zr1581     O1588   2.389       .  S
Zr1582     O1608   2.436       .  S
Zr1582     O1609   2.436       .  S
Zr1582     O1584   2.438       .  S
Zr1582     O1585   2.387       .  S
Zr1582     O1586   2.394       .  S
O1583      H1620   0.990       .  S
O1584      H1615   0.990       .  S
O1584      H1629   0.990       .  S
O1586      H1612   0.967       .  S
O1587     Zr1597   2.381       .  S
O1588     Zr1597   2.381       .  S
O1588      H1613   0.965       .  S
C1589      C2020   1.481       .  S
C1590      C2048   1.480       .  S
O1592      H1628   0.990       .  S
O1593      C1595   1.279       .  A
O1594      C1595   1.291       .  A
C1595      C2037   1.481       .  S
O1596     Zr1597   2.436       .  S
O1596      H1625   0.990       .  S
Zr1597     O1600   2.435       .  S
Zr1597     O1601   2.441       .  S
Zr1597     O1602   2.406       .  S
O1598      C1603   1.284       .  A
O1599      H1616   0.990       .  S
O1599      H1631   0.990       .  S
O1600      H1617   0.990       .  S
O1601      H1621   0.990       .  S
O1601      H1630   0.990       .  S
O1602      C1603   1.279       .  A
C1603      C2062   1.469   1_655  S
O1604      H1623   0.990       .  S
O1604      H1627   0.991       .  S
O1605      H1619   0.991       .  S
O1605      H1626   0.990       .  S
O1606      C1610   1.293       .  A
O1607      C1610   1.279       .  A
O1608      H1618   0.990       .  S
O1609      H1622   0.990       .  S
C1610      C2006   1.502       .  S
C1633      C1634   1.545       .  S
C1633      C1639   1.538       .  S
C1633      C1637   1.532       .  S
C1633      C2051   1.539       .  S
C1634      H1641   1.081       .  S
C1634      C1635   1.371       .  D
C1635      C1636   1.536       .  S
C1635      C2065   1.481       .  S
C1636      C1640   1.538       .  S
C1636      C1638   1.534       .  S
C1636      H1642   1.110       .  S
C1637      H1643   1.086       .  S
C1637      C1638   1.365       .  D
C1638      C1740   1.479       .  S
C1639      H1644   1.086       .  S
C1639      C1640   1.367       .  D
C1640      C2076   1.487       .  S
C1645      C1651   1.539       .  S
C1645      C1649   1.524       .  S
C1645      C2023   1.526       .  S
C1646      H1653   1.087       .  S
C1647      C1648   1.553   1_455  S
C1647      C2009   1.495   1_455  S
C1648      H1654   1.109       .  S
C1649      H1655   1.087       .  S
C1650      C2034   1.495   1_455  S
C1651      H1656   1.077       .  S
C1651      C1652   1.361       .  D
Zr1657     O1658   2.437       .  S
Zr1657     O1659   2.444       .  S
O1658      H1714   0.990       .  S
O1658      H1722   0.990       .  S
O1659      C1679   1.287       .  A
O1660      C1681   1.296       .  A
O1661     Zr1671   2.386       .  S
O1661      C1680   1.277       .  A
O1662     Zr1670   2.407       .  S
O1662      C1681   1.280       .  A
O1663      C1680   1.293   1_545  A
O1664     Zr1672   2.419   1_655  S
O1664      C1679   1.281       .  A
O1665     Zr1670   2.392       .  S
O1666     Zr1671   2.372   1_545  S
O1666      H1701   0.965       .  S
O1667     Zr1670   2.393       .  S
O1667      H1704   0.966       .  S
O1668     Zr1671   2.386       .  S
Zr1669     O1694   2.443       .  S
Zr1669     O1688   2.435       .  S
Zr1669     O1696   2.484       .  S
Zr1670     O1689   2.436       .  S
Zr1670     O1682   2.434       .  S
Zr1670     O1683   2.398       .  S
Zr1670     O1676   2.393       .  S
Zr1670     O1677   2.375       .  S
Zr1671     O1673   2.437       .  S
Zr1671     O1695   2.439       .  S
Zr1671     O1697   2.386       .  S
Zr1671     O1675   2.386       .  S
Zr1671     O1678   2.380       .  S
O1673      H1710   0.990       .  S
O1674      H1705   0.990       .  S
O1674      H1719   0.989       .  S
O1676      H1702   0.967       .  S
O1678      H1703   0.966       .  S
C1679      C1953   1.471       .  S
C1680      C1964   1.483       .  S
C1681      C1978   1.490       .  S
O1682      H1718   0.990       .  S
O1683      C1685   1.279       .  A
O1684      C1685   1.293       .  A
C1685      C1922   1.488       .  S
O1686     Zr1687   2.440       .  S
O1686      H1715   0.990       .  S
Zr1687     O1692   2.421       .  S
O1688      C1693   1.287       .  A
O1689      H1706   0.990       .  S
O1689      H1721   0.989       .  S
O1691      H1720   0.990       .  S
O1692      C1693   1.282       .  A
C1693      C1992   1.488       .  S
O1694      H1713   0.990       .  S
O1694      H1717   0.990       .  S
O1695      H1709   0.990       .  S
O1695      H1716   0.990       .  S
O1697      C1700   1.277       .  A
O1699      H1712   0.990       .  S
C1700      C1936   1.481       .  S
C1723      C1724   1.539       .  S
C1723      C1729   1.552       .  S
C1723      C1727   1.535       .  S
C1723      C1925   1.535       .  S
C1724      H1731   1.081       .  S
C1724      C1725   1.367       .  D
C1725      C1726   1.548       .  S
C1725      C1832   1.493       .  S
C1726      C1730   1.528       .  S
C1726      C1728   1.527       .  S
C1726      H1732   1.105       .  S
C1727      H1733   1.086       .  S
C1727      C1728   1.361       .  D
C1728      C1950   1.475       .  S
C1729      H1734   1.084       .  S
C1729      C1730   1.370       .  D
C1730      C1939   1.491       .  S
C1735      C1736   1.542       .  S
C1735      C1741   1.556       .  S
C1735      C1739   1.525       .  S
C1735      C1967   1.551       .  S
C1736      H1743   1.079       .  S
C1736      C1737   1.369       .  D
C1737      C1738   1.546       .  S
C1737      C1995   1.493       .  S
C1738      C1742   1.530       .  S
C1738      C1740   1.544       .  S
C1738      H1744   1.111       .  S
C1739      H1745   1.087       .  S
C1739      C1740   1.358       .  D
C1741      H1746   1.084       .  S
C1741      C1742   1.374       .  D
C1742      C1981   1.494       .  S
Zr1747     O1748   2.439       .  S
Zr1747     O1749   2.426       .  S
Zr1747     O1750   2.455       .  S
Zr1747     O1753   2.451       .  S
Zr1747     O1755   2.386       .  S
Zr1747     O1756   2.384       .  S
Zr1747     O1757   2.404       .  S
Zr1747     O1758   2.407       .  S
O1748      H1804   0.990       .  S
O1748      H1812   0.990       .  S
O1749      C1769   1.284       .  A
O1750      C1771   1.287       .  A
O1751     Zr1761   2.428       .  S
O1751      C1770   1.283       .  A
O1752     Zr1760   2.417       .  S
O1752      C1771   1.282       .  A
O1753      C1770   1.288       .  A
O1754     Zr1762   2.391       .  S
O1754      C1769   1.276       .  A
O1755     Zr1760   2.384       .  S
O1755     Zr1762   2.376       .  S
O1756     Zr1761   2.375       .  S
O1756     Zr1762   2.378       .  S
O1756      H1791   0.965       .  S
O1757     Zr1760   2.393       .  S
O1757     Zr1777   2.393       .  S
O1757      H1794   0.966       .  S
O1758     Zr1761   2.384       .  S
O1758     Zr1777   2.399       .  S
Zr1759     O1784   2.439       .  S
Zr1759     O1778   2.434       .  S
Zr1759     O1786   2.480       .  S
Zr1759     O1774   2.480       .  S
Zr1759     O1765   2.400       .  S
Zr1759     O1766   2.408       .  S
Zr1759     O1767   2.382       .  S
Zr1759     O1768   2.391       .  S
Zr1760     O1779   2.438       .  S
Zr1760     O1772   2.438       .  S
Zr1760     O1773   2.403       .  S
Zr1760     O1766   2.401       .  S
Zr1760     O1767   2.386       .  S
Zr1761     O1763   2.435       .  S
Zr1761     O1785   2.441       .  S
Zr1761     O1787   2.394       .  S
Zr1761     O1765   2.400       .  S
Zr1761     O1768   2.391       .  S
Zr1762     O1788   2.435       .  S
Zr1762     O1789   2.435       .  S
Zr1762     O1764   2.440       .  S
Zr1762     O1765   2.388       .  S
Zr1762     O1766   2.386       .  S
O1763      H1800   0.990       .  S
O1764      H1795   0.990       .  S
O1764      H1809   0.990       .  S
O1766      H1792   0.967       .  S
O1767     Zr1777   2.371       .  S
O1768     Zr1777   2.380       .  S
O1768      H1793   0.966       .  S
C1769      C1908   1.472       .  S
C1770      C1866   1.486       .  S
C1771      C1852   1.485       .  S
O1772      H1808   0.990       .  S
O1773      C1775   1.279       .  A
O1774      C1775   1.292       .  A
C1775      C1883   1.481       .  S
O1776     Zr1777   2.437       .  S
O1776      H1805   0.990       .  S
Zr1777     O1780   2.438       .  S
Zr1777     O1781   2.438       .  S
Zr1777     O1782   2.418       .  S
O1778      C1783   1.285       .  A
O1779      H1796   0.990       .  S
O1779      H1811   0.990       .  S
O1780      H1797   0.990       .  S
O1781      H1801   0.990       .  S
O1781      H1810   0.990       .  S
O1782      C1783   1.282       .  A
C1783      C1841   1.490       .  S
O1784      H1803   0.990       .  S
O1784      H1807   0.990       .  S
O1785      H1799   0.991       .  S
O1785      H1806   0.990       .  S
O1786      C1790   1.295       .  A
O1787      C1790   1.278       .  A
O1788      H1798   0.990       .  S
O1789      H1802   0.990       .  S
C1813      C1817   1.540       .  S
C1813      C1869   1.544       .  S
C1814      H1821   1.086       .  S
C1814      C1815   1.370       .  D
C1815      C1838   1.485       .  S
C1816      H1822   1.109       .  S
C1817      H1823   1.084       .  S
C1817      C1818   1.370       .  D
C1819      H1824   1.086       .  S
C1819      C1820   1.364       .  D
C1820      C1855   1.488       .  S
C1825      C1826   1.524       .  S
C1825      C1831   1.539       .  S
C1825      C1829   1.530       .  S
C1825      C1911   1.528       .  S
C1826      H1833   1.087       .  S
C1826      C1827   1.358       .  D
C1827      C1828   1.549       .  S
C1827      C1894   1.493       .  S
C1828      C1832   1.551       .  S
C1828      C1830   1.549       .  S
C1828      H1834   1.105       .  S
C1829      H1835   1.083       .  S
C1829      C1830   1.362       .  D
C1830      C1880   1.484       .  S
C1831      H1836   1.078       .  S
C1831      C1832   1.367       .  D
C1837      C1838   1.405       .  A
C1837      C1842   1.406       .  A
C1837      H1844   1.084       .  S
C1838      C1839   1.413       .  A
C1839      C1840   1.398       .  A
C1839      N1846   1.433       .  S
C1840      C1841   1.409       .  A
C1840      H1845   1.084       .  S
C1841      C1842   1.417       .  A
C1842      N1843   1.439       .  S
N1843      H1847   1.046       .  S
N1843      H1848   1.046       .  S
N1846      H1849   1.045       .  S
N1846      H1850   1.042       .  S
C1851      C1852   1.406       .  A
C1851      C1856   1.400       .  A
C1851      H1858   1.084       .  S
C1852      C1853   1.422       .  A
C1853      C1854   1.410       .  A
C1853      N1860   1.439       .  S
C1854      C1855   1.405       .  A
C1855      C1856   1.407       .  A
C1856      N1857   1.437       .  S
N1857      H1861   1.045       .  S
N1857      H1862   1.044       .  S
N1860      H1863   1.041       .  S
N1860      H1864   1.046       .  S
C1865      C1866   1.403       .  A
C1865      C1870   1.407       .  A
C1865      H1872   1.084       .  S
C1866      C1867   1.408       .  A
C1867      C1868   1.411       .  A
C1867      N1874   1.438       .  S
C1868      C1869   1.414       .  A
C1868      H1873   1.079       .  S
C1869      C1870   1.421       .  A
C1870      N1871   1.439       .  S
N1871      H1875   1.045       .  S
N1871      H1876   1.045       .  S
N1874      H1877   1.046       .  S
N1874      H1878   1.045       .  S
C1879      C1880   1.405       .  A
C1879      C1884   1.414       .  A
C1879      H1886   1.084       .  S
C1880      C1881   1.407       .  A
C1881      C1882   1.402       .  A
C1881      N1888   1.433       .  S
C1882      C1883   1.404       .  A
C1882      H1887   1.084       .  S
C1883      C1884   1.412       .  A
C1884      N1885   1.437       .  S
N1885      H1889   1.046       .  S
N1885      H1890   1.046       .  S
N1888      H1891   1.046       .  S
N1888      H1892   1.046       .  S
C1893      C1894   1.410       .  A
C1893      C1898   1.409       .  A
C1893      H1900   1.084       .  S
C1894      C1895   1.402       .  A
C1895      C1896   1.404       .  A
C1895      N1902   1.432       .  S
C1896      C1897   1.417       .  A
C1896      H1901   1.083       .  S
C1897      C1898   1.414       .  A
N1899      H1904   1.046       .  S
N1902      H1905   1.046       .  S
N1902      H1906   1.045       .  S
C1907      C1912   1.393       .  A
C1907      H1914   1.084       .  S
C1908      C1909   1.411       .  A
C1909      N1916   1.440       .  S
C1910      C1911   1.412       .  A
C1910      H1915   1.078       .  S
C1911      C1912   1.427       .  A
C1912      N1913   1.434       .  S
N1913      H1917   1.041       .  S
N1913      H1918   1.044       .  S
N1916      H1919   1.045       .  S
N1916      H1920   1.046       .  S
C1921      C1922   1.401       .  A
C1921      C1926   1.413       .  A
C1921      H1928   1.083       .  S
C1922      C1923   1.413       .  A
C1923      C1924   1.398       .  A
C1923      N1930   1.433       .  S
C1924      C1925   1.405       .  A
C1924      H1929   1.081       .  S
C1925      C1926   1.425       .  A
C1926      N1927   1.437       .  S
N1927      H1931   1.045       .  S
N1927      H1932   1.045       .  S
N1930      H1933   1.046       .  S
N1930      H1934   1.046       .  S
C1935      C1936   1.405       .  A
C1935      C1940   1.403       .  A
C1935      H1942   1.084       .  S
C1936      C1937   1.410       .  A
C1937      C1938   1.414       .  A
C1937      N1944   1.437       .  S
C1938      C1939   1.409       .  A
C1938      H1943   1.084       .  S
C1939      C1940   1.410       .  A
C1940      N1941   1.438       .  S
N1941      H1945   1.046       .  S
N1941      H1946   1.046       .  S
N1944      H1947   1.045       .  S
N1944      H1948   1.046       .  S
C1949      C1950   1.404       .  A
C1949      C1954   1.402       .  A
C1949      H1956   1.084       .  S
C1950      C1951   1.403       .  A
C1951      C1952   1.400       .  A
C1951      N1958   1.432       .  S
C1952      C1953   1.406       .  A
C1952      H1957   1.084       .  S
C1953      C1954   1.415       .  A
C1954      N1955   1.439       .  S
N1958      H1961   1.046       .  S
N1958      H1962   1.045       .  S
C1963      C1964   1.402       .  A
C1963      C1968   1.397       .  A
C1963      H1970   1.085       .  S
C1964      C1965   1.407       .  A
C1965      C1966   1.406       .  A
C1965      N1972   1.433   1_565  S
C1966      C1967   1.421       .  A
C1966      H1971   1.075       .  S
C1967      C1968   1.430       .  A
C1968      N1969   1.436       .  S
N1969      H1973   1.041       .  S
N1969      H1974   1.041       .  S
C1977      C1978   1.402       .  A
C1977      C1982   1.416       .  A
C1977      H1984   1.083       .  S
C1978      C1979   1.413       .  A
C1979      C1980   1.405       .  A
C1979      N1986   1.432       .  S
C1980      C1981   1.399       .  A
C1980      H1985   1.084       .  S
C1981      C1982   1.417       .  A
C1982      N1983   1.434       .  S
N1983      H1987   1.045       .  S
N1983      H1988   1.042       .  S
N1986      H1989   1.046       .  S
N1986      H1990   1.045       .  S
C1991      C1992   1.402       .  A
C1991      C1996   1.402       .  A
C1991      H1998   1.083       .  S
C1992      C1993   1.415       .  A
C1993      C1994   1.406       .  A
C1993      N2000   1.432       .  S
C1994      C1995   1.403       .  A
C1994      H1999   1.084       .  S
C1995      C1996   1.420       .  A
C1996      N1997   1.440       .  S
N1997      H2001   1.045       .  S
N1997      H2002   1.044       .  S
N2000      H2003   1.045       .  S
N2000      H2004   1.046       .  S
C2005      C2006   1.417       .  A
C2005      C2010   1.407       .  A
C2005      H2012   1.083       .  S
C2006      C2007   1.416       .  A
C2007      C2008   1.402       .  A
C2007      N2014   1.431       .  S
C2008      C2009   1.411       .  A
C2009      C2010   1.406       .  A
C2010      N2011   1.438       .  S
N2011      H2015   1.046       .  S
N2011      H2016   1.045       .  S
N2014      H2017   1.045       .  S
C2019      C2020   1.404       .  A
C2019      C2024   1.402       .  A
C2019      H2026   1.083       .  S
C2020      C2021   1.413       .  A
C2021      C2022   1.391       .  A
C2021      N2028   1.434       .  S
C2022      C2023   1.405       .  A
C2022      H2027   1.074       .  S
C2023      C2024   1.417       .  A
C2024      N2025   1.433       .  S
N2025      H2029   1.046       .  S
N2025      H2030   1.045       .  S
N2028      H2031   1.046       .  S
N2028      H2032   1.046       .  S
C2033      C2034   1.404       .  A
C2033      C2038   1.414       .  A
C2034      C2035   1.418       .  A
C2035      C2036   1.406       .  A
C2036      C2037   1.400       .  A
C2036      H2041   1.084       .  S
C2037      C2038   1.412       .  A
C2038      N2039   1.436       .  S
N2039      H2043   1.046       .  S
N2039      H2044   1.045       .  S
N2042      H2045   1.046       .  S
N2042      H2046   1.045   1_455  S
C2047      C2048   1.398       .  A
C2047      C2052   1.397       .  A
C2047      H2054   1.084       .  S
C2048      C2049   1.412       .  A
C2049      C2050   1.412       .  A
C2049      N2056   1.438       .  S
C2050      C2051   1.414       .  A
C2050      H2055   1.076       .  S
C2051      C2052   1.418       .  A
C2052      N2053   1.433       .  S
N2053      H2057   1.046       .  S
N2053      H2058   1.046       .  S
N2056      H2059   1.045       .  S
N2056      H2060   1.046       .  S
C2061      C2066   1.404       .  A
C2063      C2064   1.400       .  A
C2063      N2070   1.440       .  S
C2064      C2065   1.400       .  A
C2064      H2069   1.084       .  S
C2065      C2066   1.409       .  A
C2066      N2067   1.432       .  S
N2067      H2071   1.045       .  S
N2067      H2072   1.045       .  S
N2070      H2074   1.046       .  S
C2075      C2076   1.404       .  A
C2075      C2080   1.408       .  A
C2075      H2082   1.083       .  S
C2076      C2077   1.414       .  A
C2077      C2078   1.402       .  A
C2077      N2084   1.438       .  S
C2078      C2079   1.400       .  A
C2078      H2083   1.084       .  S
C2079      C2080   1.411       .  A
N2081      H2085   1.046       .  S
N2081      H2086   1.046       .  S
N2084      H2087   1.045       .  S
N2084      H2088   1.046       .  S
