geometry optimzed in LAMMPS
_audit_creation_date              2020-11-30 
_audit_creation_method            'lammps2cif' 
_symmetry_space_group_name_H-M    'P1' 
_symmetry_Int_Tables_number       1 
_symmetry_cell_setting            triclinic 
loop_ 
_symmetry_equiv_pos_as_xyz 
  x,y,z 
_cell_length_a                    32.18134172 
_cell_length_b                    32.22117005571908 
_cell_length_c                    79.42228653323019 
_cell_angle_alpha                 90.31809241272059 
_cell_angle_beta                  89.79288795647436 
_cell_angle_gamma                 120.10130679649468 
loop_ 
_atom_site_label 
_atom_site_type_symbol 
_atom_site_fract_x 
_atom_site_fract_y 
_atom_site_fract_z 
_atom_site_charge 
C1          C  0.09239459  0.49529555  0.53731105     0.80000
N2          N  0.07563311  0.48040180  0.52138557    -0.78300
C3          C  0.09276444  0.45720831  0.51186756     0.82500
N4          N  0.12683618  0.44917728  0.51827839    -0.78200
C5          C  0.14438310  0.46361513  0.53397849     0.82600
N6          N  0.12709496  0.48696324  0.54355560    -0.79900
C7          C  0.91369811  0.55345413  0.44792935     0.80000
N8          N  0.92948715  0.56635538  0.46418507    -0.78300
C9          C  0.91104268  0.58814103  0.47405843     0.82500
N10         N  0.87794376  0.59749017  0.46753904    -0.78200
C11         C  0.86251001  0.58588372  0.45152819     0.82600
N12         N  0.87995397  0.56329687  0.44175847    -0.79900
O13         O  0.93241622  0.64305228  0.55399818    -0.85500
O14         O  0.98523411  0.60481635  0.56660371    -0.82600
C15         C  0.01999951  0.60359476  0.57341011     0.97900
O16         O  0.04036492  0.62964594  0.58626198    -0.82600
O17         O  0.10016449  0.71639824  0.57129641    -0.85300
C18         C  0.11087850  0.75274528  0.56239446     1.02400
O19         O  0.08157758  0.76782226  0.56063266    -0.78000
O20         O  0.99946354  0.70217914  0.54460003    -0.78200
C21         C  0.96075472  0.66381681  0.54188578     1.02400
O22         O  0.91720603  0.66459755  0.58786862    -0.85500
O23         O  0.95824553  0.61445369  0.60026916    -0.82600
C24         C  0.97611086  0.64198093  0.61281143     0.97900
O25         O  0.01384882  0.68186250  0.61089960    -0.82600
O26         O  0.07981379  0.76664994  0.59608538    -0.85200
C27         C  0.06397628  0.79526999  0.59438616     1.02400
O28         O  0.02752222  0.78381046  0.58537489    -0.78100
O29         O  0.94234446  0.72254297  0.56936900    -0.78200
C30         C  0.91528452  0.69960862  0.58173101     1.02400
Cr31       Cr  0.95215592  0.63571930  0.57720638     1.93700
Cr32       Cr  0.05454517  0.69767039  0.59037408     1.93200
Cr33       Cr  0.01177157  0.74004798  0.56574793     1.39100
O34         O  0.00661850  0.69164645  0.57777693    -1.23300
C35         C  0.24864288  0.22314193  0.11801921     0.80000
N36         N  0.26257084  0.23615682  0.13434991    -0.78300
C37         C  0.24223926  0.25645279  0.14386527     0.82500
N38         N  0.20846240  0.26410289  0.13695647    -0.78200
C39         C  0.19433518  0.25232907  0.12078460     0.82600
N40         N  0.21437554  0.23145251  0.11129313    -0.79900
C41         C  0.42310954  0.16874176  0.20533357     0.80000
N42         N  0.40875365  0.15566201  0.18901943    -0.78300
C43         C  0.42901240  0.13535321  0.17943641     0.82500
N44         N  0.46265761  0.12739394  0.18625135    -0.78200
C45         C  0.47706355  0.13923870  0.20238713     0.82600
N46         N  0.45733075  0.16026061  0.21192202    -0.79900
O47         O  0.41880936  0.04734324  0.06676656    -0.85500
O48         O  0.37792140  0.09829832  0.05509406    -0.82600
C49         C  0.35985781  0.07017844  0.04274706     0.97900
O50         O  0.32134353  0.03118480  0.04479989    -0.82600
O51         O  0.25652839  0.94736945  0.05991038    -0.85300
C52         C  0.27330609  0.91940451  0.06128504     1.02400
O53         O  0.31006013  0.93094901  0.07008347    -0.78000
O54         O  0.39506961  0.99102643  0.08576303    -0.78200
C55         C  0.42022427  0.01193616  0.07281310     1.02400
O56         O  0.40629284  0.07043682  0.10090954    -0.85500
O57         O  0.35417924  0.11009562  0.08882623    -0.82600
C58         C  0.31918915  0.11170437  0.08235126     0.97900
O59         O  0.29738342  0.08502039  0.06975178    -0.82600
O60         O  0.23824510  0.99871941  0.08508621    -0.85200
C61         C  0.22705279  0.96143825  0.09347851     1.02400
O62         O  0.25639526  0.94633396  0.09500079    -0.78100
O63         O  0.33924342  0.01237578  0.11070177    -0.78200
C64         C  0.37781460  0.05113133  0.11310550     1.02400
Cr65       Cr  0.38568222  0.07778947  0.07791315     1.93700
Cr66       Cr  0.28228631  0.01656701  0.06561269     1.93200
Cr67       Cr  0.32606810  0.97410668  0.08971648     1.39100
O68         O  0.33082735  0.02241044  0.07777772    -1.23300
O69         O  0.26556159  0.31728446  0.22326635    -0.85500
O70         O  0.31633727  0.27788403  0.23633771    -0.82600
C71         C  0.35158949  0.27679252  0.24273791     0.97900
O72         O  0.37299618  0.30328207  0.25544854    -0.82600
O73         O  0.43378018  0.38796381  0.24006742    -0.85300
C74         C  0.44477905  0.42230800  0.23013936     1.02400
O75         O  0.41708051  0.43921729  0.22805735    -0.78000
O76         O  0.33344682  0.37313784  0.21312662    -0.78200
C77         C  0.29376641  0.33548969  0.21094663     1.02400
O78         O  0.25327070  0.34353299  0.25665849    -0.85500
O79         O  0.29182734  0.29204124  0.26991851    -0.82600
C80         C  0.31060421  0.32064744  0.28214227     0.97900
O81         O  0.34912438  0.35942605  0.27976851    -0.82600
O82         O  0.41507920  0.44206344  0.26426333    -0.85200
C83         C  0.39883854  0.47030613  0.26216045     1.02400
O84         O  0.36390966  0.45923955  0.25245884    -0.78100
O85         O  0.27867028  0.39885996  0.23713965    -0.78200
C86         C  0.25166633  0.37782679  0.24973847     1.02400
Cr87       Cr  0.28568381  0.31152564  0.24655678     1.93700
Cr88       Cr  0.38886093  0.37230438  0.25912089     1.93200
Cr89       Cr  0.34742711  0.41377615  0.23351892     1.39100
O90         O  0.34117854  0.36638279  0.24640488    -1.23300
C91         C  0.19371715  0.27307656  0.37489507     0.80000
N92         N  0.20335418  0.23918356  0.38101499    -0.78300
C93         C  0.22746868  0.22306131  0.37137242     0.82500
N94         N  0.24015333  0.23964132  0.35551680    -0.78200
C95         C  0.23096888  0.27297444  0.34918777     0.82600
N96         N  0.20803505  0.29024629  0.35892923    -0.79900
C97         C  0.13652227  0.44938397  0.28201772     0.80000
N98         N  0.13213122  0.48679467  0.27608640    -0.78300
C99         C  0.10718109  0.50341970  0.28508405     0.82500
N100        N  0.08625333  0.48179137  0.29972959    -0.78200
C101        C  0.08999207  0.44481590  0.30580297     0.82600
N102        N  0.11554192  0.42894473  0.29700113    -0.79900
O103        O  0.00951921  0.44274676  0.40594839    -0.85500
O104        O  0.03391608  0.41141872  0.43327455    -0.82600
C105        C  0.03111026  0.38317811  0.44461727     0.97900
O106        O  0.01811267  0.34023145  0.44095586    -0.82600
O107        O  0.92019737  0.30204983  0.43500163    -0.85300
C108        C  0.88171279  0.29133592  0.42727628     1.02400
O109        O  0.88198628  0.29543613  0.41146301    -0.78000
O110        O  0.93201836  0.39163260  0.40677453    -0.78200
C111        C  0.96701754  0.43327756  0.40926515     1.02400
O112        O  0.04739285  0.39361014  0.38480394    -0.85500
O113        O  0.07761818  0.36784129  0.41230020    -0.82600
C114        C  0.06607483  0.32458229  0.40926567     0.97900
O115        O  0.02332619  0.29127431  0.41144489    -0.82600
O116        O  0.92564373  0.24559823  0.40846133    -0.85200
C117        C  0.91910138  0.24294312  0.39274578     1.02400
O118        O  0.93167895  0.28072801  0.38432546    -0.78100
O119        O  0.97613667  0.37871286  0.37709162    -0.78200
C120        C  0.01862752  0.38967843  0.37342455     1.02400
Cr121      Cr  0.03786426  0.39979368  0.40905513     1.93700
Cr122      Cr  0.97280781  0.29865658  0.42298285     1.93200
Cr123      Cr  0.93448458  0.33760174  0.39581211     1.39100
O124        O  0.98187406  0.34547855  0.40922416    -1.23300
C125        C  0.52502911  0.93349943  0.03696034     0.80000
N126        N  0.54032733  0.94875419  0.02087744    -0.78300
C127        C  0.56372951  0.93052185  0.01193237     0.82500
N128        N  0.57295475  0.89832127  0.01922190    -0.78200
C129        C  0.55940995  0.88362151  0.03520470     0.82600
N130        N  0.53499456  0.90089665  0.04409285    -0.79900
C131        C  0.48249355  0.11811531  0.95167922     0.80000
N132        N  0.46803586  0.10225492  0.96770968    -0.78300
C133        C  0.44606860  0.12084674  0.97718513     0.82500
N134        N  0.43788459  0.15458826  0.97062979    -0.78200
C135        C  0.45086435  0.17029816  0.95469131     0.82600
N136        N  0.47344191  0.15201093  0.94521572    -0.79900
O137        O  0.63392602  0.95872172  0.93417253    -0.85500
O138        O  0.59253796  0.00902098  0.92225996    -0.82600
C139        C  0.59013586  0.04356624  0.91593104     0.97900
O140        O  0.61526595  0.06464853  0.90298923    -0.82600
O141        O  0.70080159  0.12565748  0.91810374    -0.85300
C142        C  0.73723082  0.13735305  0.92709916     1.02400
O143        O  0.75458858  0.10987412  0.92849613    -0.78000
O144        O  0.69057371  0.02649126  0.94409612    -0.78200
C145        C  0.65260871  0.98718653  0.94643055     1.02400
O146        O  0.65664597  0.94622044  0.90025890    -0.85500
O147        O  0.60348694  0.98485731  0.88830927    -0.82600
C148        C  0.63085627  0.00425149  0.87586234     0.97900
O149        O  0.67021448  0.04232332  0.87796523    -0.82600
O150        O  0.75354670  0.10908096  0.89301865    -0.85200
C151        C  0.78231955  0.09329563  0.89441212     1.02400
O152        O  0.77197977  0.05728236  0.90341165    -0.78100
O153        O  0.71395676  0.97183459  0.91913933    -0.78200
C154        C  0.69197968  0.94499764  0.90657917     1.02400
Cr155      Cr  0.62534215  0.97847608  0.91122243     1.93700
Cr156      Cr  0.68419101  0.08155681  0.89874735     1.93200
Cr157      Cr  0.72889738  0.04043259  0.92306481     1.39100
O158        O  0.67998012  0.03396227  0.91099942    -1.23300
C159        C  0.85376639  0.59455302  0.70410386     0.80000
N160        N  0.86063879  0.55970514  0.71109754    -0.78300
C161        C  0.88155008  0.53899485  0.70199071     0.82500
N162        N  0.89488488  0.55312602  0.68590616    -0.78200
C163        C  0.88886311  0.58762159  0.67877115     0.82600
N164        N  0.86850859  0.60857584  0.68792013    -0.79900
C165        C  0.80587098  0.77409768  0.61626301     0.80000
N166        N  0.79284012  0.76050165  0.63262450    -0.78300
C167        C  0.77183226  0.78056216  0.64192641     0.82500
N168        N  0.76308609  0.81320599  0.63478322    -0.78200
C169        C  0.77464243  0.82653509  0.61859571     0.82600
N170        N  0.79635974  0.80717644  0.60928073    -0.79900
C171        C  0.57681920  0.88435679  0.78394227     0.80000
N172        N  0.54223249  0.89237948  0.77738715    -0.78300
C173        C  0.52347797  0.91459078  0.78677434     0.82500
N174        N  0.53931582  0.92828140  0.80266708    -0.78200
C175        C  0.57351276  0.92110140  0.80945755     0.82600
N176        N  0.59258713  0.89931361  0.80003657    -0.79900
C177        C  0.76537706  0.83734718  0.86993767     0.80000
N178        N  0.80031241  0.82961221  0.87642085    -0.78300
C179        C  0.82056474  0.80931426  0.86668317     0.82500
N180        N  0.80631471  0.79795092  0.85049809    -0.78200
C181        C  0.77174355  0.80487448  0.84390130     0.82600
N182        N  0.75090166  0.82403928  0.85368673    -0.79900
O183        O  0.74501060  0.70564230  0.73239152    -0.85500
O184        O  0.70710408  0.75949555  0.72032593    -0.82600
C185        C  0.68749777  0.73122015  0.70810936     0.97900
O186        O  0.64895923  0.69244988  0.71050992    -0.82600
O187        O  0.58061247  0.61079762  0.72658092    -0.85300
C188        C  0.59364852  0.58006978  0.72884025     1.02400
O189        O  0.63073575  0.59077085  0.73734201    -0.78000
O190        O  0.71886326  0.64954894  0.75170467    -0.78200
C191        C  0.74542416  0.67022270  0.73897502     1.02400
O192        O  0.73634586  0.73230790  0.76609089    -0.85500
O193        O  0.68596110  0.77382242  0.75418472    -0.82600
C194        C  0.65126732  0.77637959  0.74799026     0.97900
O195        O  0.62950222  0.75091650  0.73512604    -0.82600
O196        O  0.56726104  0.66721508  0.75084098    -0.85200
C197        C  0.55557212  0.63194761  0.76038581     1.02400
O198        O  0.58285717  0.61450869  0.76232390    -0.78100
O199        O  0.66870000  0.67808214  0.77676202    -0.78200
C200        C  0.70887943  0.71539333  0.77863922     1.02400
Cr201      Cr  0.71469139  0.73909431  0.74324817     1.93700
Cr202      Cr  0.61058259  0.68111635  0.73142858     1.93200
Cr203      Cr  0.65136195  0.63713456  0.75625732     1.39100
O204        O  0.65834957  0.68518139  0.74364151    -1.23300
C205        C  0.28253494  0.45183268  0.78407250     0.80000
N206        N  0.28300260  0.43319200  0.79947119    -0.78300
C207        C  0.32444521  0.45088479  0.80842140     0.82500
N208        N  0.36491784  0.48758006  0.80202844    -0.78200
C209        C  0.36604419  0.50686115  0.78687722     0.82600
N210        N  0.32454487  0.48872373  0.77778147    -0.79900
C211        C  0.05665675  0.27449353  0.87417455     0.80000
N212        N  0.01299578  0.23924968  0.87979172    -0.78300
C213        C  0.97313286  0.22335348  0.87007268     0.82500
N214        N  0.97744297  0.24249615  0.85466386    -0.78200
C215        C  0.02007008  0.27737274  0.84879532     0.82600
N216        N  0.06015251  0.29389624  0.85856501    -0.79900
O217        O  0.93075547  0.27140694  0.73662982    -0.85500
O218        O  0.02163268  0.31253614  0.72362366    -0.82600
C219        C  0.01308010  0.33169374  0.71127176     0.97900
O220        O  0.01202083  0.36979227  0.71353216    -0.82600
O221        O  0.99121529  0.43360312  0.72860016    -0.85300
C222        C  0.94625172  0.41614051  0.73017999     1.02400
O223        O  0.92164852  0.38007105  0.73933648    -0.78000
O224        O  0.89836510  0.29627336  0.75554766    -0.78200
C225        C  0.89388513  0.26959710  0.74297485     1.02400
O226        O  0.96934135  0.28813063  0.77039607    -0.85500
O227        O  0.05979866  0.33957054  0.75729104    -0.82600
C228        C  0.09601918  0.37464674  0.75068801     0.97900
O229        O  0.09035409  0.39560706  0.73809448    -0.82600
O230        O  0.06193229  0.45312262  0.75365930    -0.85200
C231        C  0.03627225  0.46491846  0.76210248     1.02400
O232        O  0.99160352  0.43607694  0.76366478    -0.78100
O233        O  0.97669566  0.35487897  0.77979845    -0.78200
C234        C  0.97861689  0.31741167  0.78239378     1.02400
Cr235      Cr  0.99522924  0.30663500  0.74696970     1.93700
Cr236      Cr  0.03585377  0.40913947  0.73425083     1.93200
Cr237      Cr  0.95016650  0.36585356  0.75885802     1.39100
O238        O  0.99362228  0.36084883  0.74662090    -1.23300
O239        O  0.31729158  0.39645531  0.88733500    -0.85500
O240        O  0.26344979  0.37234718  0.91530846    -0.82600
C241        C  0.23123677  0.32935505  0.91212867     0.97900
O242        O  0.23951054  0.29561201  0.91473403    -0.82600
O243        O  0.28756991  0.24769444  0.90996695    -0.85300
C244        C  0.29080788  0.24607087  0.89415334     1.02400
O245        O  0.31685064  0.28410736  0.88594151    -0.78000
O246        O  0.37335901  0.38198672  0.87895457    -0.78200
C247        C  0.34196678  0.39333047  0.87567831     1.02400
O248        O  0.40673476  0.44389844  0.90747721    -0.85500
O249        O  0.35241888  0.41435502  0.93537897    -0.82600
C250        C  0.32903099  0.38637975  0.94713149     0.97900
O251        O  0.29800729  0.34330628  0.94390788    -0.82600
O252        O  0.35310398  0.30098120  0.93617785    -0.85200
C253        C  0.37849181  0.28858619  0.92767120     1.02400
O254        O  0.38171054  0.29425435  0.91190525    -0.78100
O255        O  0.43075717  0.39109113  0.90799299    -0.78200
C256        C  0.43923504  0.43335820  0.91036751     1.02400
Cr257      Cr  0.33498781  0.40262604  0.91136927     1.93700
Cr258      Cr  0.29741534  0.30090102  0.92525748     1.93200
Cr259      Cr  0.37278860  0.33889659  0.89717906     1.39100
O260        O  0.33510837  0.34761631  0.91131005    -1.23300
C261        C  0.38733234  0.50731928  0.03844183     0.80000
N262        N  0.38832347  0.48750685  0.02332761    -0.78300
C263        C  0.34735971  0.46133605  0.01439634     0.82500
N264        N  0.30566492  0.45563059  0.02046650    -0.78200
C265        C  0.30349617  0.47539477  0.03525459     0.82600
N266        N  0.34465262  0.50116082  0.04437260    -0.79900
C267        C  0.61423852  0.55634927  0.94766782     0.80000
N268        N  0.65852937  0.56544433  0.94236654    -0.78300
C269        C  0.69767095  0.58968926  0.95250710     0.82500
N270        N  0.69187818  0.60335699  0.96802991    -0.78200
C271        C  0.64855842  0.59459962  0.97354008     0.82600
N272        N  0.60949059  0.57125309  0.96335519    -0.79900
O273        O  0.60610883  0.61641037  0.06549566    -0.85500
O274        O  0.69515765  0.65464585  0.05157802    -0.82600
C275        C  0.68548534  0.67548925  0.04010265     0.97900
O276        O  0.68766849  0.71469120  0.04341846    -0.82600
O277        O  0.67473611  0.78031040  0.06088992    -0.85300
C278        C  0.63025654  0.76491545  0.06281436     1.02400
O279        O  0.60495835  0.72825310  0.07161500    -0.78000
O280        O  0.57711440  0.64108126  0.08575954    -0.78200
C281        C  0.57066371  0.61516588  0.07277454     1.02400
O282        O  0.64505175  0.62404917  0.09852004    -0.85500
O283        O  0.73540240  0.67431628  0.08504581    -0.82600
C284        C  0.77211073  0.70922378  0.07860883     0.97900
O285        O  0.76721933  0.73224393  0.06653286    -0.82600
O286        O  0.74619926  0.79249928  0.08422982    -0.85200
C287        C  0.72291015  0.80462359  0.09385095     1.02400
O288        O  0.67821929  0.77732653  0.09620406    -0.78100
O289        O  0.65716667  0.69070833  0.10999577    -0.78200
C290        C  0.65435983  0.65047498  0.11137960     1.02400
Cr291      Cr  0.67068680  0.64631284  0.07526721     1.93700
Cr292      Cr  0.71590730  0.75096051  0.06451968     1.93200
Cr293      Cr  0.63236935  0.70849630  0.09007493     1.39100
O294        O  0.67304631  0.70237469  0.07668988    -1.23300
C295        C  0.71339952  0.16316632  0.70615710     0.80000
N296        N  0.67063788  0.15647857  0.71228778    -0.78300
C297        C  0.63028139  0.13472687  0.70261797     0.82500
N298        N  0.63333876  0.12035467  0.68695138    -0.78200
C299        C  0.67464365  0.12603186  0.68056278     0.82600
N300        N  0.71504090  0.14716661  0.69025275    -0.79900
C301        C  0.94910571  0.21397484  0.61899073     0.80000
N302        N  0.99209326  0.22201422  0.61262710    -0.78300
C303        C  0.03268244  0.24361810  0.62225025     0.82500
N304        N  0.02964180  0.25648525  0.63823670    -0.78200
C305        C  0.98776738  0.24920118  0.64475326     0.82600
N306        N  0.94749605  0.22844017  0.63507947    -0.79900
C307        C  0.38406646  0.93133528  0.53716961     0.80000
N308        N  0.38519559  0.94639643  0.52102643    -0.78300
C309        C  0.34440779  0.92769640  0.51168384     0.82500
N310        N  0.30248962  0.89454253  0.51856716    -0.78200
C311        C  0.29978700  0.87981246  0.53463000     0.82600
N312        N  0.34090745  0.89791116  0.54393627    -0.79900
C313        C  0.61213932  0.11692771  0.45440136     0.80000
N314        N  0.65370230  0.15362521  0.44792672    -0.78300
C315        C  0.69537689  0.17317267  0.45687105     0.82500
N316        N  0.69507347  0.15562301  0.47227198    -0.78200
C317        C  0.65476553  0.11917677  0.47896203     0.82600
N318        N  0.61312358  0.09954968  0.46999157    -0.79900
O319        O  0.69416855  0.08896904  0.55669700    -0.85500
O320        O  0.60152233  0.03680999  0.56818474    -0.82600
C321        C  0.56425735  0.00161172  0.57427139     0.97900
O322        O  0.56808254  0.98026573  0.58709883    -0.82600
O323        O  0.59399540  0.92170886  0.57075513    -0.85300
C324        C  0.61965149  0.91024167  0.56210691     1.02400
O325        O  0.66465556  0.93822885  0.56115546    -0.78000
O326        O  0.68480358  0.02231989  0.54625386    -0.78200
C327        C  0.68620382  0.06163183  0.54421089     1.02400
O328        O  0.72827563  0.09992187  0.59063331    -0.85500
O329        O  0.63563076  0.05869237  0.60236211    -0.82600
C330        C  0.64382965  0.03892573  0.61457646     0.97900
O331        O  0.64463460  0.00072466  0.61212389    -0.82600
O332        O  0.66165846  0.93519590  0.59586788    -0.85200
C333        C  0.70629855  0.95066772  0.59469488     1.02400
O334        O  0.73302919  0.98868252  0.58670536    -0.78100
O335        O  0.76122913  0.07556861  0.57170287    -0.78200
C336        C  0.76537794  0.10211212  0.58428974     1.02400
Cr337      Cr  0.66481035  0.06737137  0.57946872     1.93700
Cr338      Cr  0.62022433  0.96340546  0.59082470     1.93200
Cr339      Cr  0.70795322  0.00714826  0.56718186     1.39100
O340        O  0.66448023  0.01230365  0.57919300    -1.23300
O341        O  0.26985072  0.94746292  0.39939623    -0.85500
O342        O  0.36296935  0.98754317  0.38808711    -0.82600
C343        C  0.35418981  0.00663389  0.37583580     0.97900
O344        O  0.35335144  0.04481307  0.37831339    -0.82600
O345        O  0.33411420  0.10920394  0.39410984    -0.85300
C346        C  0.28956175  0.09389947  0.39588893     1.02400
O347        O  0.26375459  0.05708311  0.40459760    -0.78000
O348        O  0.23754659  0.97029275  0.41905250    -0.78200
C349        C  0.23315113  0.94615613  0.40576263     1.02400
O350        O  0.30307214  0.95601041  0.43348823    -0.85500
O351        O  0.39576307  0.00863672  0.42227748    -0.82600
C352        C  0.43296438  0.04475561  0.41659886     0.97900
O353        O  0.42966507  0.06686961  0.40386463    -0.82600
O354        O  0.40304076  0.12629985  0.41927659    -0.85200
C355        C  0.37709443  0.13665813  0.42827205     1.02400
O356        O  0.33263072  0.10729796  0.42977106    -0.78100
O357        O  0.31464030  0.02287717  0.44434044    -0.78200
C358        C  0.31294467  0.98326418  0.44610635     1.02400
Cr359      Cr  0.33292687  0.97861143  0.41082242     1.93700
Cr360      Cr  0.37701981  0.08282090  0.39955199     1.93200
Cr361      Cr  0.29017024  0.03849256  0.42372645     1.39100
O362        O  0.33339198  0.03388630  0.41134522    -1.23300
C363        C  0.05197149  0.84311172  0.36893819     0.80000
N364        N  0.00942293  0.83329902  0.37626935    -0.78300
C365        C  0.96775228  0.81033167  0.36730597     0.82500
N366        N  0.96898740  0.79818360  0.35109667    -0.78200
C367        C  0.01040169  0.80744758  0.34361849     0.82600
N368        N  0.05190153  0.82937454  0.35261506    -0.79900
C369        C  0.27927021  0.88379482  0.28406621     0.80000
N370        N  0.32211026  0.89302246  0.27723627    -0.78300
C371        C  0.36334268  0.91669335  0.28634638     0.82500
N372        N  0.36146916  0.93018597  0.30232895    -0.78200
C373        C  0.31971740  0.92177413  0.30933687     0.82600
N374        N  0.27845516  0.89900535  0.30014734    -0.79900
C375        C  0.95205891  0.77880105  0.11471571     0.80000
N376        N  0.94979278  0.76552587  0.13116182    -0.78300
C377        C  0.98974821  0.78623700  0.14097358     0.82500
N378        N  0.03200769  0.81916434  0.13422218    -0.78200
C379        C  0.03543941  0.83220207  0.11792285     0.82600
N380        N  0.99526549  0.81247204  0.10814890    -0.79900
C381        C  0.71631361  0.58796213  0.20162813     0.80000
N382        N  0.67393621  0.55370655  0.20852798    -0.78300
C383        C  0.63238547  0.53391308  0.19940506     0.82500
N384        N  0.63392793  0.54844635  0.18330896    -0.78200
C385        C  0.67542935  0.58232354  0.17626195     0.82600
N386        N  0.71643812  0.60241102  0.18550983    -0.79900
O387        O  0.02516915  0.76182277  0.21989966    -0.85500
O388        O  0.93333802  0.70682969  0.23213275    -0.82600
C389        C  0.89768227  0.67076682  0.23862795     0.97900
O390        O  0.90360915  0.65190695  0.25182028    -0.82600
O391        O  0.93097896  0.59280584  0.23748772    -0.85300
C392        C  0.95565620  0.58230288  0.22794791     1.02400
O393        O  0.99963621  0.61209901  0.22518545    -0.78000
O394        O  0.01535220  0.69474369  0.20994141    -0.78200
C395        C  0.01592400  0.73354885  0.20763312     1.02400
O396        O  0.06093419  0.77546739  0.25366744    -0.85500
O397        O  0.96877974  0.73368946  0.26590105    -0.82600
C398        C  0.98038359  0.71751382  0.27833055     0.97900
O399        O  0.98368693  0.68056811  0.27640906    -0.82600
O400        O  0.00362520  0.61542088  0.26180897    -0.85200
C401        C  0.04791014  0.63160946  0.25902451     1.02400
O402        O  0.07135109  0.66654966  0.24933778    -0.78100
O403        O  0.09403324  0.75140138  0.23464203    -0.78200
C404        C  0.09798426  0.77721766  0.24747610     1.02400
Cr405      Cr  0.99717826  0.74075463  0.24291485     1.93700
Cr406      Cr  0.95841448  0.63910869  0.25613431     1.93200
Cr407      Cr  0.04201619  0.68206788  0.23050968     1.39100
O408        O  0.99930065  0.68671960  0.24319635    -1.23300
C409        C  0.14600216  0.74017608  0.78712360     0.80000
N410        N  0.13421791  0.74144654  0.80357543    -0.78300
C411        C  0.11180560  0.70044121  0.81273668     0.82500
N412        N  0.09985086  0.65816595  0.80531790    -0.78200
C413        C  0.11030795  0.65596114  0.78897677     0.82600
N414        N  0.13390718  0.69704846  0.77986525    -0.79900
C415        C  0.18658048  0.97148262  0.87094181     0.80000
N416        N  0.19557976  0.01486027  0.87714962    -0.78300
C417        C  0.21759139  0.05489323  0.86737751     0.82500
N418        N  0.22988313  0.05090177  0.85145131    -0.78200
C419        C  0.22152727  0.00856349  0.84509019     0.82600
N420        N  0.20041311  0.96874066  0.85488208    -0.79900
O421        O  0.24954999  0.95462892  0.75549900    -0.85500
O422        O  0.28790872  0.04644615  0.76725026    -0.82600
C423        C  0.30685527  0.03736842  0.77949885     0.97900
O424        O  0.34543658  0.03726526  0.77723350    -0.82600
O425        O  0.41259157  0.02211498  0.76172981    -0.85300
C426        C  0.39753708  0.97767062  0.76009734     1.02400
O427        O  0.36158889  0.95157189  0.75103998    -0.78000
O428        O  0.27478988  0.92291923  0.73639046    -0.78200
C429        C  0.24935540  0.91833138  0.74935654     1.02400
O430        O  0.25895036  0.98799996  0.72159004    -0.85500
O431        O  0.30973756  0.08053228  0.73332290    -0.82600
C432        C  0.34423190  0.11782437  0.73970157     0.97900
O433        O  0.36574223  0.11423627  0.75257351    -0.82600
O434        O  0.42701342  0.09115511  0.73701899    -0.85200
C435        C  0.43893168  0.06697136  0.72779160     1.02400
O436        O  0.41168101  0.02206478  0.72602055    -0.78100
O437        O  0.32669748  0.00062216  0.71118645    -0.78200
C438        C  0.28686755  0.99830764  0.70917554     1.02400
Cr439      Cr  0.28024193  0.01751195  0.74439048     1.93700
Cr440      Cr  0.38388406  0.06309502  0.75643203     1.93200
Cr441      Cr  0.34269553  0.97713919  0.73185642     1.39100
O442        O  0.33612761  0.01919545  0.74422380    -1.23300
C443        C  0.75924130  0.96690921  0.36710087     0.80000
N444        N  0.74477187  0.96539854  0.35088542    -0.78300
C445        C  0.76315368  0.00602440  0.34157722     0.82500
N446        N  0.79528011  0.04849996  0.34854116    -0.78200
C447        C  0.80939812  0.05126034  0.36471438     0.82600
N448        N  0.79137096  0.01025900  0.37398112    -0.79900
C449        C  0.57395548  0.74472586  0.28442432     0.80000
N450        N  0.53778577  0.70162175  0.27855048    -0.78300
C451        C  0.51907832  0.66183031  0.28848553     0.82500
N452        N  0.53632950  0.66569837  0.30423753    -0.78200
C453        C  0.57212951  0.70751799  0.31028936     0.82600
N454        N  0.59132177  0.74717231  0.30035139    -0.79900
C455        C  0.09139969  0.64444640  0.04011492     0.80000
N456        N  0.12638287  0.68747761  0.04648583    -0.78300
C457        C  0.14526199  0.72772400  0.03679737     0.82500
N458        N  0.12952272  0.72426361  0.02086579    -0.78200
C459        C  0.09555769  0.68238402  0.01423938     0.82600
N460        N  0.07592480  0.64231435  0.02392986    -0.79900
C461        C  0.90873976  0.41074210  0.95190221     0.80000
N462        N  0.92426258  0.41246572  0.96801785    -0.78300
C463        C  0.90478417  0.37223449  0.97758920     0.82500
N464        N  0.87079092  0.33027026  0.97093126    -0.78200
C465        C  0.85556690  0.32724417  0.95488948     0.82600
N466        N  0.87449479  0.36776113  0.94536646    -0.79900
C467        C  0.81213751  0.07776843  0.11593157     0.80000
N468        N  0.80683990  0.03582983  0.10957914    -0.78300
C469        C  0.78523897  0.99482301  0.11886948     0.82500
N470        N  0.76934925  0.99634173  0.13448621    -0.78200
C471        C  0.77392800  0.03708931  0.14106967     0.82600
N472        N  0.79495422  0.07794616  0.13172396    -0.79900
C473        C  0.85614932  0.30736434  0.20510407     0.80000
N474        N  0.86562385  0.35086339  0.21147900    -0.78300
C475        C  0.88686490  0.39080310  0.20157570     0.82500
N476        N  0.89704460  0.38634294  0.18541956    -0.78200
C477        C  0.88844513  0.34409944  0.17894679     0.82600
N478        N  0.86867644  0.30455757  0.18885378    -0.79900
O479        O  0.92327036  0.29849334  0.08883840    -0.85500
O480        O  0.96230790  0.38938837  0.10196542    -0.82600
C481        C  0.97953411  0.37825060  0.11419488     0.97900
O482        O  0.01801310  0.37774629  0.11213578    -0.82600
O483        O  0.08575086  0.36282708  0.09680384    -0.85300
C484        C  0.07079997  0.31874096  0.09418829     1.02400
O485        O  0.03595740  0.29439226  0.08446848    -0.78000
O486        O  0.94971999  0.26815992  0.06959908    -0.78200
C487        C  0.92224864  0.26243468  0.08208379     1.02400
O488        O  0.93593525  0.33634827  0.05555838    -0.85500
O489        O  0.98737335  0.42750103  0.06871705    -0.82600
C490        C  0.02170649  0.46380149  0.07568532     0.97900
O491        O  0.04258254  0.45832672  0.08838923    -0.82600
O492        O  0.10434187  0.43532774  0.07304098    -0.85200
C493        C  0.11565140  0.41205854  0.06307753     1.02400
O494        O  0.08759372  0.36767816  0.06038855    -0.78100
O495        O  0.00362129  0.34824197  0.04538468    -0.78200
C496        C  0.96405536  0.34631239  0.04322198     1.02400
Cr497      Cr  0.95615667  0.36299526  0.07876422     1.93700
Cr498      Cr  0.05875088  0.40548960  0.09180204     1.93200
Cr499      Cr  0.01825702  0.32258759  0.06577706     1.39100
O500        O  0.01163387  0.36366638  0.07876067    -1.23300
O501        O  0.73270642  0.04958459  0.26475341    -0.85500
O502        O  0.67979505  0.95874693  0.25213616    -0.82600
C503        C  0.64334747  0.92228004  0.24620406     0.97900
O504        O  0.62066991  0.92698607  0.23388160    -0.82600
O505        O  0.56253928  0.95474908  0.24949929    -0.85300
C506        C  0.55267474  0.98032058  0.25888126     1.02400
O507        O  0.58285848  0.02434676  0.26098067    -0.78000
O508        O  0.66580333  0.03806627  0.27555549    -0.78200
C509        C  0.70477626  0.03837335  0.27719824     1.02400
O510        O  0.74400489  0.08714534  0.23143415    -0.85500
O511        O  0.70241001  0.99505393  0.21862455    -0.82600
C512        C  0.68366766  0.00481505  0.20651111     0.97900
O513        O  0.64567914  0.00600172  0.20902665    -0.82600
O514        O  0.58284691  0.02678825  0.22501497    -0.85200
C515        C  0.59983885  0.07129407  0.22761919     1.02400
O516        O  0.63586407  0.09507178  0.23693281    -0.78100
O517        O  0.72141570  0.11799926  0.25172037    -0.78200
C518        C  0.74715559  0.12351651  0.23877768     1.02400
Cr519      Cr  0.71092688  0.02270157  0.24172112     1.93700
Cr520      Cr  0.60696491  0.98156686  0.23007322     1.93200
Cr521      Cr  0.65228673  0.06577072  0.25550190     1.39100
O522        O  0.65616235  0.02335855  0.24236517    -1.23300
O523        O  0.06953514  0.72191653  0.93617206    -0.85500
O524        O  0.01731504  0.63006559  0.92408008    -0.82600
C525        C  0.98248514  0.59345104  0.91751640     0.97900
O526        O  0.96055670  0.59802416  0.90494078    -0.82600
O527        O  0.90102343  0.62574367  0.91957679    -0.85300
C528        C  0.89015897  0.65146306  0.92844956     1.02400
O529        O  0.91970127  0.69583128  0.93034108    -0.78000
O530        O  0.00190855  0.71108785  0.94606819    -0.78200
C531        C  0.04082579  0.71165810  0.94834806     1.02400
O532        O  0.08258927  0.75636539  0.90226300    -0.85500
O533        O  0.04222923  0.66404254  0.89049193    -0.82600
C534        C  0.02448440  0.67355474  0.87801857     0.97900
O535        O  0.98679497  0.67563201  0.87993657    -0.82600
O536        O  0.92239245  0.69656134  0.89445757    -0.85200
C537        C  0.93954341  0.74141130  0.89625897     1.02400
O538        O  0.97478704  0.76563712  0.90584635    -0.78100
O539        O  0.05902526  0.78921391  0.92147747    -0.78200
C540        C  0.08438746  0.79325401  0.90855349     1.02400
Cr541      Cr  0.04923178  0.69325055  0.91324888     1.93700
Cr542      Cr  0.94648737  0.65189280  0.90048647     1.93200
Cr543      Cr  0.98968879  0.73737294  0.92525528     1.39100
O544        O  0.99455002  0.69409835  0.91297815    -1.23300
C545        C  0.47808643  0.41103919  0.45270640     0.80000
N546        N  0.46371706  0.41195169  0.46885839    -0.78300
C547        C  0.44229950  0.37119636  0.47818002     0.82500
N548        N  0.43447777  0.32958187  0.47129340    -0.78200
C549        C  0.44759472  0.32752217  0.45527704     0.82600
N550        N  0.46972397  0.36838226  0.44595113    -0.79900
C551        C  0.51689322  0.63668351  0.53711747     0.80000
N552        N  0.53041631  0.63557456  0.52080342    -0.78300
C553        C  0.55204860  0.67654808  0.51149257     0.82500
N554        N  0.56136448  0.71837022  0.51866606    -0.78200
C555        C  0.54918093  0.72041164  0.53478079     0.82600
N556        N  0.52669378  0.67956078  0.54401936    -0.79900
O557        O  0.58568363  0.62703597  0.42196419    -0.85500
O558        O  0.62468537  0.71922353  0.43385553    -0.82600
C559        C  0.64264551  0.70949123  0.44624254     0.97900
O560        O  0.68117610  0.70898664  0.44420886    -0.82600
O561        O  0.74832944  0.69261966  0.42897046    -0.85300
C562        C  0.73365931  0.64831135  0.42704659     1.02400
O563        O  0.69732584  0.62249351  0.41807348    -0.78000
O564        O  0.61097007  0.59515247  0.40291811    -0.78200
C565        C  0.58484013  0.59051583  0.41568600     1.02400
O566        O  0.59710597  0.66116830  0.38810554    -0.85500
O567        O  0.64851108  0.75315652  0.39990257    -0.82600
C568        C  0.68410110  0.79011146  0.40598047     0.97900
O569        O  0.70430205  0.78655886  0.41922303    -0.82600
O570        O  0.76552423  0.76224476  0.40420317    -0.85200
C571        C  0.77719966  0.73754050  0.39510768     1.02400
O572        O  0.74877771  0.69285496  0.39326565    -0.78100
O573        O  0.66471068  0.67329009  0.37787926    -0.78200
C574        C  0.62530714  0.67191760  0.37575154     1.02400
Cr575      Cr  0.61769214  0.69025219  0.41098776     1.93700
Cr576      Cr  0.72094871  0.73454328  0.42347172     1.93200
Cr577      Cr  0.67943607  0.64883734  0.39874034     1.39100
O578        O  0.67321446  0.69112309  0.41109724    -1.23300
C579        C  0.41451532  0.30266500  0.70655216     0.80000
N580        N  0.40041752  0.30210767  0.69030394    -0.78300
C581        C  0.41797589  0.34348037  0.68147101     0.82500
N582        N  0.44891790  0.38546270  0.68890743    -0.78200
C583        C  0.46271826  0.38728330  0.70506006     0.82600
N584        N  0.44595325  0.34571267  0.71390451    -0.79900
C585        C  0.24107385  0.07150135  0.61768749     0.80000
N586        N  0.20729790  0.02868367  0.61075973    -0.78300
C587        C  0.18770049  0.98773639  0.62011680     0.82500
N588        N  0.20155864  0.99011401  0.63629101    -0.78200
C589        C  0.23489940  0.03167782  0.64334558     0.82600
N590        N  0.25505091  0.07238174  0.63400067    -0.79900
O591        O  0.40165933  0.38525395  0.60238234    -0.85500
O592        O  0.35061186  0.29322533  0.59032034    -0.82600
C593        C  0.31607641  0.25616652  0.58384148     0.97900
O594        O  0.29448187  0.26025452  0.57107486    -0.82600
O595        O  0.23416400  0.28595742  0.58621339    -0.85300
C596        C  0.22289558  0.31090117  0.59534200     1.02400
O597        O  0.25074049  0.35578950  0.59689020    -0.78000
O598        O  0.33423753  0.37537199  0.61214843    -0.78200
C599        C  0.37312406  0.37608169  0.61456205     1.02400
O600        O  0.41390778  0.41961083  0.56835256    -0.85500
O601        O  0.37451691  0.32795911  0.55646516    -0.82600
C602        C  0.35598773  0.33692915  0.54405548     0.97900
O603        O  0.31751879  0.33745826  0.54614564    -0.82600
O604        O  0.25141608  0.35528399  0.56113084    -0.85200
C605        C  0.26767323  0.40001863  0.56265662     1.02400
O606        O  0.30362056  0.42547415  0.57176819    -0.78100
O607        O  0.38907947  0.45250999  0.58707464    -0.78200
C608        C  0.41481880  0.45643977  0.57426412     1.02400
Cr609      Cr  0.38143186  0.35653908  0.57939297     1.93700
Cr610      Cr  0.27823749  0.31278950  0.56688316     1.93200
Cr611      Cr  0.32033838  0.39928863  0.59125796     1.39100
O612        O  0.32615338  0.35617273  0.57919675    -1.23300
C613        C  0.26257960  0.11743125  0.60788090    -0.05700
C614        C  0.30027602  0.15948013  0.61507043    -0.33100
C615        C  0.31898106  0.20411354  0.60716697     0.36200
C616        C  0.30037166  0.20813868  0.59152712    -0.06000
C617        C  0.26403936  0.16590186  0.58394930    -0.33000
C618        C  0.24551315  0.12099073  0.59185487     0.36100
H619        H  0.31505455  0.15826904  0.62716822     0.16400
O620        O  0.35497458  0.24369237  0.61513706    -0.60500
H621        H  0.24916633  0.16767091  0.57194078     0.16500
O622        O  0.20952798  0.08127100  0.58398997    -0.60600
H623        H  0.22619176  0.06955715  0.57648800     0.43400
H624        H  0.33842272  0.25400362  0.62325525     0.43400
C625        C  0.40483283  0.34452364  0.66384986    -0.05700
C626        C  0.44184838  0.36893575  0.65212719    -0.33100
C627        C  0.43211736  0.37896781  0.63600775     0.36200
C628        C  0.38463552  0.36532436  0.63145185    -0.06000
C629        C  0.34733859  0.33959712  0.64310234    -0.33000
C630        C  0.35714549  0.32874560  0.65915194     0.36100
H631        H  0.47879137  0.38151158  0.65567780     0.16400
O632        O  0.46954323  0.40320934  0.62500359    -0.60500
H633        H  0.31044867  0.32799140  0.63979466     0.16500
O634        O  0.32039296  0.30572656  0.67049697    -0.60600
H635        H  0.30889026  0.27110022  0.66888010     0.43400
H636        H  0.48067318  0.43765725  0.62694733     0.43400
C637        C  0.56898903  0.67830807  0.49402219    -0.05700
C638        C  0.59598584  0.65652985  0.48977258    -0.33100
C639        C  0.62080968  0.66681319  0.47435509     0.36200
C640        C  0.61802196  0.69857049  0.46281091    -0.06000
C641        C  0.58901748  0.71828973  0.46679175    -0.33000
C642        C  0.56497159  0.70868545  0.48220879     0.36100
H643        H  0.59973324  0.63336753  0.49872429     0.16400
O644        O  0.64685234  0.64490208  0.47056667    -0.60500
H645        H  0.58574545  0.74219482  0.45804851     0.16500
O646        O  0.53864295  0.73042883  0.48582965    -0.60600
H647        H  0.50522786  0.70671744  0.48255580     0.43400
H648        H  0.67862765  0.66521935  0.47591885     0.43400
C649        C  0.49288693  0.59169277  0.54739761    -0.05700
C650        C  0.49310937  0.55052524  0.54161950    -0.33100
C651        C  0.46968336  0.50720256  0.55051227     0.36200
C652        C  0.44485272  0.50372015  0.56569226    -0.06000
C653        C  0.44557846  0.54519007  0.57172451    -0.33000
C654        C  0.46943603  0.58875630  0.56285846     0.36100
H655        H  0.51131196  0.55155977  0.52999515     0.16400
O656        O  0.47111095  0.46836836  0.54404368    -0.60500
H657        H  0.42671132  0.54375154  0.58322566     0.16500
O658        O  0.46771617  0.62757629  0.56916009    -0.60600
H659        H  0.49433010  0.64254749  0.57742378     0.43400
H660        H  0.44551906  0.45465728  0.53535380     0.43400
C661        C  0.50255601  0.45610796  0.44253275    -0.05700
C662        C  0.52831880  0.45812469  0.42787531    -0.33100
C663        C  0.55372435  0.50074671  0.41857402     0.36200
C664        C  0.55386148  0.54280250  0.42379089    -0.06000
C665        C  0.52661814  0.54016597  0.43807831    -0.33000
C666        C  0.50147511  0.49781449  0.44739505     0.36100
H667        H  0.52983696  0.42680250  0.42376272     0.16400
O668        O  0.57967728  0.50111437  0.40479101    -0.60500
H669        H  0.52553289  0.57155747  0.44240619     0.16500
O670        O  0.47540887  0.49770967  0.46111809    -0.60600
H671        H  0.49912949  0.51263119  0.47035773     0.43400
H672        H  0.55673869  0.49046381  0.39525806     0.43400
C673        C  0.42535221  0.36987567  0.49550622    -0.05700
C674        C  0.43862926  0.34798953  0.50791628    -0.33100
C675        C  0.41651005  0.33712353  0.52371197     0.36200
C676        C  0.37976144  0.34760605  0.52732315    -0.06000
C677        C  0.36710274  0.37042135  0.51492965    -0.33000
C678        C  0.38983569  0.38180079  0.49915314     0.36100
H679        H  0.46543242  0.33794157  0.50514909     0.16400
O680        O  0.43053661  0.31531775  0.53535872    -0.60500
H681        H  0.33934203  0.37929930  0.51742950     0.16500
O682        O  0.37469269  0.40135324  0.48702455    -0.60600
H683        H  0.39635206  0.43650907  0.48805755     0.43400
H684        H  0.40900403  0.28041587  0.53354048     0.43400
C685        C  0.90447828  0.34404768  0.16158687    -0.05700
C686        C  0.93645715  0.32750796  0.15817198    -0.33100
C687        C  0.96157360  0.33855893  0.14283860     0.36200
C688        C  0.95414124  0.36587584  0.13059948    -0.06000
C689        C  0.92003547  0.37993967  0.13378765    -0.33000
C690        C  0.89553996  0.36942336  0.14909733     0.36100
H691        H  0.94404021  0.30840072  0.16774759     0.16400
O692        O  0.99298112  0.32225580  0.13993566    -0.60500
H693        H  0.91308265  0.40029497  0.12453481     0.16500
O694        O  0.86424410  0.38588556  0.15203382    -0.60600
H695        H  0.83238631  0.35932206  0.14848459     0.43400
H696        H  0.02298493  0.34540947  0.14581442     0.43400
C697        C  0.77995253  0.17249803  0.23191240    -0.05700
C698        C  0.77359780  0.21125984  0.23650327    -0.33100
C699        C  0.79950507  0.25604932  0.22848642     0.36200
C700        C  0.83235622  0.26282542  0.21548624    -0.06000
C701        C  0.84045020  0.22486152  0.21154927    -0.33000
C702        C  0.81484489  0.18030817  0.21957220     0.36100
H703        H  0.74696780  0.20636467  0.24586740     0.16400
O704        O  0.78985786  0.29170991  0.23267858    -0.60500
H705        H  0.86628221  0.22934321  0.20191195     0.16500
O706        O  0.82434994  0.14464122  0.21518907    -0.60600
H707        H  0.80658526  0.13089884  0.20454292     0.43400
H708        H  0.81058757  0.30818694  0.24252610     0.43400
C709        C  0.83733980  0.12333929  0.10597483    -0.05700
C710        C  0.83056935  0.16195249  0.11023374    -0.33100
C711        C  0.85583499  0.20627224  0.10199679     0.36200
C712        C  0.88967917  0.21357897  0.08923648    -0.06000
C713        C  0.89508754  0.17441961  0.08448225    -0.33000
C714        C  0.86948909  0.12986528  0.09267729     0.36100
H715        H  0.80571565  0.15805036  0.12016674     0.16400
O716        O  0.84783296  0.24255044  0.10692384    -0.60500
H717        H  0.92064744  0.17872492  0.07476622     0.16500
O718        O  0.87757173  0.09356856  0.08787840    -0.60600
H719        H  0.90502558  0.09796098  0.09482285     0.43400
H720        H  0.82250410  0.24017878  0.09929799     0.43400
C721        C  0.75547015  0.03486009  0.15833040    -0.05700
C722        C  0.72506117  0.05319395  0.16201360    -0.33100
C723        C  0.70051581  0.04301098  0.17750278     0.36200
C724        C  0.70697560  0.01485555  0.18967549    -0.06000
C725        C  0.73888440  0.99826496  0.18610752    -0.33000
C726        C  0.76276911  0.00785715  0.17067734     0.36100
H727        H  0.71875267  0.07368812  0.15262925     0.16400
O728        O  0.67107577  0.06147905  0.18070012    -0.60500
H729        H  0.74500468  0.97709034  0.19526138     0.16500
O730        O  0.79260785  0.98969818  0.16763879    -0.60600
H731        H  0.82471138  0.01487632  0.17160220     0.43400
H732        H  0.63968991  0.03811076  0.17567942     0.43400
C733        C  0.92108492  0.37202043  0.99487192    -0.05700
C734        C  0.96980085  0.38910251  0.99812948    -0.33100
C735        C  0.98445482  0.38055606  0.01372655     0.36200
C736        C  0.95014518  0.35549967  0.02646332    -0.06000
C737        C  0.90167060  0.34034955  0.02331014    -0.33000
C738        C  0.88706784  0.34808591  0.00767650     0.36100
H739        H  0.99626065  0.40710219  0.98831216     0.16400
O740        O  0.03237930  0.39731382  0.01641168    -0.60500
H741        H  0.87466440  0.32146867  0.03288634     0.16500
O742        O  0.83912244  0.33099125  0.00486923    -0.60600
H743        H  0.83392845  0.35802730  0.00774502     0.43400
H744        H  0.03840730  0.37219086  0.01176144     0.43400
C745        C  0.92930330  0.45572097  0.94176858    -0.05700
C746        C  0.97233881  0.49597559  0.94707048    -0.33100
C747        C  0.99123406  0.54002798  0.93880954     0.36200
C748        C  0.96681647  0.54529780  0.92493151    -0.06000
C749        C  0.92489219  0.50454033  0.91911731    -0.33000
C750        C  0.90614606  0.46018275  0.92735683     0.36100
H751        H  0.99149139  0.49367025  0.95788545     0.16400
O752        O  0.03289436  0.57805460  0.94488675    -0.60500
H753        H  0.90551702  0.50729291  0.90845848     0.16500
O754        O  0.86442575  0.42197488  0.92143421    -0.60600
H755        H  0.83824486  0.42435113  0.92715088     0.43400
H756        H  0.05907557  0.57704457  0.93861208     0.43400
C757        C  0.07126880  0.59985647  0.05049176    -0.05700
C758        C  0.09817401  0.59641556  0.06381196    -0.33100
C759        C  0.08177335  0.55330199  0.07273815     0.36200
C760        C  0.03753603  0.51231906  0.06847429    -0.06000
C761        C  0.00964096  0.51672806  0.05576484    -0.33000
C762        C  0.02602370  0.55955606  0.04682798     0.36100
H763        H  0.13297409  0.62675449  0.06696159     0.16400
O764        O  0.11062034  0.55111451  0.08494695    -0.60500
H765        H  0.97517098  0.48630566  0.05234187     0.16500
O766        O  0.99699043  0.56163036  0.03465311    -0.60600
H767        H  0.00088149  0.54517118  0.02468474     0.43400
H768        H  0.10126607  0.56087179  0.09550160     0.43400
C769        C  0.08089261  0.68286736  0.99666845    -0.05700
C770        C  0.03220853  0.66005279  0.99216997    -0.33100
C771        C  0.01834746  0.66910631  0.97646263     0.36200
C772        C  0.05352232  0.70084106  0.96499638    -0.06000
C773        C  0.10211923  0.72105162  0.96917253    -0.33000
C774        C  0.11590023  0.71271583  0.98484059     0.36100
H775        H  0.00487338  0.63697983  0.00109114     0.16400
O776        O  0.97056254  0.64593337  0.97229062    -0.60500
H777        H  0.12975906  0.74454972  0.96041110     0.16500
O778        O  0.16397017  0.73395915  0.98851215    -0.60600
H779        H  0.17455401  0.76811142  0.99087782     0.43400
H780        H  0.95782544  0.66541635  0.97744159     0.43400
C781        C  0.61244948  0.68384399  0.35916049    -0.05700
C782        C  0.64789063  0.70728182  0.34667392    -0.33100
C783        C  0.63639256  0.71924072  0.33102221     0.36200
C784        C  0.58881873  0.70733125  0.32758633    -0.06000
C785        C  0.55389937  0.68532419  0.34018299    -0.33000
C786        C  0.56529435  0.67407672  0.35584089     0.36100
H787        H  0.68454829  0.71593969  0.34896300     0.16400
O788        O  0.67100233  0.73915652  0.31878059    -0.60500
H789        H  0.51691668  0.67520602  0.33763922     0.16500
O790        O  0.52928523  0.65133278  0.36747255    -0.60600
H791        H  0.52676721  0.67735652  0.37325154     0.43400
H792        H  0.68701194  0.77424621  0.32075025     0.43400
C793        C  0.59380753  0.78883359  0.27363959    -0.05700
C794        C  0.56790982  0.79029626  0.25956746    -0.33100
C795        C  0.58420090  0.83245102  0.25000203     0.36200
C796        C  0.62731469  0.87461140  0.25434477    -0.06000
C797        C  0.65405495  0.87234206  0.26796552    -0.33000
C798        C  0.63799075  0.83043515  0.27744899     0.36100
H799        H  0.53403432  0.75900792  0.25619793     0.16400
O800        O  0.55649438  0.83236932  0.23691767    -0.60500
H801        H  0.68746087  0.90375649  0.27165841     0.16500
O802        O  0.66575321  0.83117312  0.29063570    -0.60600
H803        H  0.68709295  0.82020442  0.28579758     0.43400
H804        H  0.56836720  0.82301422  0.22686798     0.43400
C805        C  0.70253020  0.83657516  0.39689675    -0.05700
C806        C  0.68547061  0.83564868  0.38053670    -0.33100
C807        C  0.70378860  0.87707718  0.37072898     0.36200
C808        C  0.73951695  0.92180271  0.37725334    -0.06000
C809        C  0.75657260  0.92289638  0.39369102    -0.33000
C810        C  0.73891340  0.88086109  0.40337205     0.36100
H811        H  0.65830533  0.80214854  0.37498691     0.16400
O812        O  0.68595498  0.87298333  0.35476525    -0.60500
H813        H  0.78419639  0.95639380  0.39907012     0.16500
O814        O  0.75728919  0.88374387  0.41916256    -0.60600
H815        H  0.78668138  0.88161428  0.41737713     0.43400
H816        H  0.70465506  0.86283000  0.34762892     0.43400
C817        C  0.74677661  0.00593101  0.32435384    -0.05700
C818        C  0.69809345  0.98932275  0.32122555    -0.33100
C819        C  0.68361190  0.99927556  0.30586689     0.36200
C820        C  0.71817554  0.02582468  0.29338969    -0.06000
C821        C  0.76639037  0.03930848  0.29622641    -0.33000
C822        C  0.78073639  0.02965901  0.31155849     0.36100
H823        H  0.67162681  0.97084516  0.33100129     0.16400
O824        O  0.63569599  0.98253904  0.30314974    -0.60500
H825        H  0.79342939  0.05862983  0.28670409     0.16500
O826        O  0.82843452  0.04507142  0.31415982    -0.60600
H827        H  0.83167277  0.01638702  0.31225007     0.43400
H828        H  0.62911411  0.00653013  0.30851489     0.43400
C829        C  0.39558616  0.25620548  0.71582442    -0.05700
C830        C  0.36037146  0.21356847  0.70810550    -0.33100
C831        C  0.34267009  0.16891787  0.71585844     0.36200
C832        C  0.35985408  0.16549006  0.73185617    -0.06000
C833        C  0.39459735  0.20803376  0.73974040    -0.33000
C834        C  0.41249388  0.25290464  0.73190554     0.36100
H835        H  0.34656139  0.21439996  0.69577213     0.16400
O836        O  0.31015512  0.12867655  0.70720129    -0.60500
H837        H  0.40866123  0.20656994  0.75195544     0.16500
O838        O  0.44683016  0.29304690  0.74009596    -0.60600
H839        H  0.47788375  0.29570285  0.73688522     0.43400
H840        H  0.27834902  0.12523700  0.70967483     0.43400
C841        C  0.27342658  0.00883805  0.69258477    -0.05700
C842        C  0.30951598  0.03945285  0.68126131    -0.33100
C843        C  0.29769498  0.05065091  0.66558540     0.36200
C844        C  0.24922138  0.03017233  0.66087260    -0.06000
C845        C  0.21328020  0.00086998  0.67239199    -0.33000
C846        C  0.22494059  0.99043858  0.68813341     0.36100
H847        H  0.34704644  0.05477011  0.68456713     0.16400
O848        O  0.33369700  0.07890860  0.65457334    -0.60500
H849        H  0.17574455  0.98475331  0.66895219     0.16500
O850        O  0.18852271  0.96113118  0.69885470    -0.60600
H851        H  0.18151379  0.92815353  0.69614613     0.43400
H852        H  0.34153735  0.11219559  0.65717419     0.43400
C853        C  0.28345267  0.02690048  0.79620265    -0.05700
C854        C  0.24989878  0.04149990  0.79959638    -0.33100
C855        C  0.22711049  0.03256177  0.81518635     0.36200
C856        C  0.23715800  0.00813977  0.82772897    -0.06000
C857        C  0.26886738  0.99135682  0.82419357    -0.33000
C858        C  0.29237478  0.00093609  0.80857470     0.36100
H859        H  0.24203780  0.06099520  0.79026154     0.16400
O860        O  0.19627373  0.04949576  0.81828885    -0.60500
H861        H  0.27727689  0.97301111  0.83381996     0.16500
O862        O  0.32346986  0.98432341  0.80549366    -0.60600
H863        H  0.35459444  0.00891134  0.81035955     0.43400
H864        H  0.16364811  0.02151572  0.81659986     0.43400
C865        C  0.16254228  0.92745539  0.88153711    -0.05700
C866        C  0.17054004  0.88923741  0.87806581    -0.33100
C867        C  0.14734377  0.84651994  0.88726600     0.36200
C868        C  0.11470314  0.84069972  0.90027504    -0.06000
C869        C  0.10745888  0.87934568  0.90401420    -0.33000
C870        C  0.13074544  0.92218478  0.89475644     0.36100
H871        H  0.19490575  0.89228656  0.86806911     0.16400
O872        O  0.15609027  0.81025252  0.88305346    -0.60500
H873        H  0.08212431  0.87575387  0.91371592     0.16500
O874        O  0.12059395  0.95783532  0.89836361    -0.60600
H875        H  0.09338219  0.95150441  0.89089162     0.43400
H876        H  0.18407629  0.81605203  0.88998495     0.43400
C877        C  0.17067981  0.78518573  0.77704778    -0.05700
C878        C  0.19692501  0.78728091  0.76253847    -0.33100
C879        C  0.22151549  0.82957855  0.75305071     0.36200
C880        C  0.21996889  0.87103948  0.75786705    -0.06000
C881        C  0.19271182  0.86841778  0.77215873    -0.33000
C882        C  0.16865794  0.82646742  0.78172702     0.36100
H883        H  0.19936460  0.75626322  0.75869161     0.16400
O884        O  0.24837565  0.83029972  0.73950145    -0.60500
H885        H  0.19063658  0.89946425  0.77624883     0.16500
O886        O  0.14236587  0.82612292  0.79542057    -0.60600
H887        H  0.16607932  0.84182715  0.80460787     0.43400
H888        H  0.22583435  0.81901516  0.72983547     0.43400
C889        C  0.04842624  0.68265504  0.86144446    -0.05700
C890        C  0.07771923  0.66296336  0.85782966    -0.33100
C891        C  0.10088337  0.67095235  0.84229008     0.36200
C892        C  0.09568016  0.69969322  0.83013530    -0.06000
C893        C  0.06843013  0.72138855  0.83398984    -0.33000
C894        C  0.04439123  0.71262978  0.84945032     0.36100
H895        H  0.08185618  0.64037922  0.86693869     0.16400
O896        O  0.12759341  0.64947169  0.83891806    -0.60500
H897        H  0.06385645  0.74326568  0.82469395     0.16500
O898        O  0.01780986  0.73423667  0.85281430    -0.60600
H899        H  0.98600764  0.71305151  0.84761599     0.43400
H900        H  0.16109695  0.67394632  0.84178529     0.43400
C901        C  0.90221395  0.43986265  0.20807129    -0.05700
C902        C  0.88257415  0.44654553  0.22295112    -0.33100
C903        C  0.89812920  0.49288115  0.22925276     0.36200
C904        C  0.93404893  0.53351160  0.22067307    -0.06000
C905        C  0.95309948  0.52686256  0.20575897    -0.33000
C906        C  0.93752224  0.48100678  0.19937618     0.36100
H907        H  0.85547143  0.41584670  0.22981618     0.16400
O908        O  0.87922320  0.49784817  0.24412494    -0.60500
H909        H  0.98098101  0.55749489  0.19907391     0.16500
O910        O  0.95922275  0.47713250  0.18502273    -0.60600
H911        H  0.94245816  0.48268882  0.17559707     0.43400
H912        H  0.90081626  0.49789106  0.25301477     0.43400
C913        C  0.84950874  0.65056312  0.23035313    -0.05700
C914        C  0.84436383  0.67483032  0.21654622    -0.33100
C915        C  0.80164385  0.65516167  0.20722780     0.36200
C916        C  0.76193228  0.61022446  0.21164847    -0.06000
C917        C  0.76659890  0.58624299  0.22565794    -0.33000
C918        C  0.80975534  0.60576557  0.23487748     0.36100
H919        H  0.87404195  0.70917861  0.21265734     0.16400
O920        O  0.79903384  0.68096000  0.19399871    -0.60500
H921        H  0.73703449  0.55151616  0.22927414     0.16500
O922        O  0.81317770  0.57955931  0.24778331    -0.60600
H923        H  0.80090027  0.58834470  0.25785321     0.43400
H924        H  0.81507835  0.67460167  0.18446303     0.43400
C925        C  0.98949712  0.77222688  0.15863780    -0.05700
C926        C  0.96915782  0.72373296  0.16291129    -0.33100
C927        C  0.97753624  0.71052562  0.17880788     0.36200
C928        C  0.00591256  0.74613917  0.19078959    -0.06000
C929        C  0.02380155  0.79452319  0.18675093    -0.33000
C930        C  0.01603537  0.80764862  0.17084071     0.36100
H931        H  0.94873985  0.69611253  0.15365254     0.16400
O932        O  0.95722769  0.66274380  0.18257620    -0.60500
H933        H  0.04500127  0.82246117  0.19581257     0.16500
O934        O  0.03573801  0.85543740  0.16716209    -0.60600
H935        H  0.00961805  0.86270448  0.16916609     0.43400
H936        H  0.97949678  0.65284562  0.17783421     0.43400
C937        C  0.50430619  0.96075127  0.26662984    -0.05700
C938        C  0.49568932  0.99148555  0.27678460    -0.33100
C939        C  0.44988153  0.97760114  0.28277571     0.36200
C940        C  0.41101512  0.93170962  0.27896443    -0.06000
C941        C  0.41905617  0.90047648  0.26889729    -0.33000
C942        C  0.46540083  0.91451420  0.26283325     0.36100
H943        H  0.52442204  0.02731192  0.27982798     0.16400
O944        O  0.44336401  0.00986222  0.29211707    -0.60500
H945        H  0.38957650  0.86497098  0.26594300     0.16500
O946        O  0.47180299  0.88324100  0.25288781    -0.60600
H947        H  0.48010416  0.86479526  0.26078759     0.43400
H948        H  0.43422097  0.02687758  0.28385870     0.43400
C949        C  0.23391787  0.85816869  0.27398053    -0.05700
C950        C  0.19449512  0.86366965  0.27819457    -0.33100
C951        C  0.15112570  0.83954024  0.26923354     0.36200
C952        C  0.14573073  0.80829717  0.25572795    -0.06000
C953        C  0.18548795  0.80349497  0.25129804    -0.33000
C954        C  0.22898481  0.82780715  0.26025737     0.36100
H955        H  0.19716208  0.88693262  0.28854248     0.16400
O956        O  0.11391773  0.84612547  0.27413889    -0.60500
H957        H  0.18248586  0.77949330  0.24116825     0.16500
O958        O  0.26589389  0.82033946  0.25572838    -0.60600
H959        H  0.26147509  0.79290540  0.26266272     0.43400
H960        H  0.11705891  0.87295166  0.26714170     0.43400
C961        C  0.82583308  0.75932772  0.38741326    -0.05700
C962        C  0.83624616  0.73031902  0.37704654    -0.33100
C963        C  0.88246024  0.74647414  0.37101622     0.36200
C964        C  0.92002928  0.79295578  0.37505618    -0.06000
C965        C  0.91018700  0.82254448  0.38533896    -0.33000
C966        C  0.86333311  0.80623992  0.39139935     0.36100
H967        H  0.80858113  0.69417789  0.37379398     0.16400
O968        O  0.89059806  0.71594939  0.36126672    -0.60500
H969        H  0.93854031  0.85854106  0.38839626     0.16500
O970        O  0.85506079  0.83603293  0.40148688    -0.60600
H971        H  0.84556724  0.85373866  0.39367690     0.43400
H972        H  0.90294366  0.70087347  0.36914758     0.43400
C973        C  0.00802942  0.78984833  0.32623663    -0.05700
C974        C  0.03186617  0.76489377  0.32191290    -0.33100
C975        C  0.02303137  0.74090886  0.30638666     0.36200
C976        C  0.99028237  0.74211154  0.29486208    -0.06000
C977        C  0.96817841  0.76886508  0.29895173    -0.33000
C978        C  0.97648226  0.79220915  0.31449102     0.36100
H979        H  0.05582149  0.76230500  0.33084969     0.16400
O980        O  0.04637716  0.71619420  0.30267435    -0.60500
H981        H  0.94341610  0.77079712  0.29021840     0.16500
O982        O  0.95252795  0.81631136  0.31825050    -0.60600
H983        H  0.97597516  0.85056795  0.31608694     0.43400
H984        H  0.07528563  0.73899956  0.29620362     0.43400
C985        C  0.39731460  0.18499005  0.43607510    -0.05700
C986        C  0.44340483  0.22241766  0.43152352    -0.33100
C987        C  0.46044476  0.26959618  0.43730064     0.36200
C988        C  0.43163677  0.27961335  0.44799595    -0.06000
C989        C  0.38620521  0.24220367  0.45272414    -0.33000
C990        C  0.36880863  0.19565088  0.44682127     0.36100
H991        H  0.46591194  0.21538465  0.42319310     0.16400
O992        O  0.50574046  0.30505815  0.43295193    -0.60500
H993        H  0.36338679  0.24917472  0.46093601     0.16500
O994        O  0.32370271  0.16090998  0.45174050    -0.60600
H995        H  0.30130052  0.16449253  0.44414168     0.43400
H996        H  0.50180539  0.31774596  0.42209836     0.43400
C997        C  0.09791470  0.86770183  0.37874627    -0.05700
C998        C  0.10074881  0.89276751  0.39368008    -0.33100
C999        C  0.14380677  0.91737582  0.40286088     0.36200
C1000       C  0.18547128  0.91710432  0.39732075    -0.06000
C1001       C  0.18237121  0.89144898  0.38253400    -0.33000
C1002       C  0.13954029  0.86709003  0.37333426     0.36100
H1003       H  0.06968590  0.89429418  0.39813048     0.16400
O1004       O  0.14501304  0.94312075  0.41683968    -0.60500
H1005       H  0.21366051  0.89077763  0.37781241     0.16500
O1006       O  0.13929230  0.84328609  0.35893262    -0.60600
H1007       H  0.13028367  0.81046652  0.36263800     0.43400
H1008       H  0.13515934  0.92013966  0.42632071     0.43400
C1009       C  0.32142016  0.93848067  0.32681848    -0.05700
C1010       C  0.34564838  0.92689332  0.33889516    -0.33100
C1011       C  0.35630454  0.94849245  0.35482913     0.36200
C1012       C  0.34378197  0.98353009  0.35889953    -0.06000
C1013       C  0.31888940  0.99469569  0.34683425    -0.33000
C1014       C  0.30743749  0.97221244  0.33094501     0.36100
H1015       H  0.35752243  0.90168580  0.33578307     0.16400
O1016       O  0.38108410  0.93667881  0.36600323    -0.60500
H1017       H  0.30836728  0.02105978  0.34969102     0.16500
O1018       O  0.28568255  0.98592646  0.31916914    -0.60600
H1019       H  0.25078631  0.96572581  0.32137426     0.43400
H1020       H  0.35640970  0.90661961  0.37141380     0.43400
C1021       C  0.59873223  0.86207418  0.55420805    -0.05700
C1022       C  0.62978976  0.85049906  0.54558999    -0.33100
C1023       C  0.61389433  0.80419195  0.53974976     0.36200
C1024       C  0.56591857  0.76800389  0.54226694    -0.06000
C1025       C  0.53427940  0.77900546  0.55068740    -0.33000
C1026       C  0.55021889  0.82588008  0.55651293     0.36100
H1027       H  0.66719738  0.87717274  0.54365674     0.16400
O1028       O  0.64592737  0.79447085  0.53172262    -0.60500
H1029       H  0.49706740  0.75153593  0.55244328     0.16500
O1030       O  0.51833993  0.83547328  0.56468577    -0.60600
H1031       H  0.50474205  0.84662871  0.55578586     0.43400
H1032       H  0.65962999  0.78372069  0.54072719     0.43400
C1033       C  0.67798223  0.07575753  0.52742568    -0.05700
C1034       C  0.64570613  0.04080753  0.51605582    -0.33100
C1035       C  0.63547905  0.05414222  0.50046132     0.36200
C1036       C  0.65829941  0.10291291  0.49599659    -0.06000
C1037       C  0.69030806  0.13755779  0.50744642    -0.33000
C1038       C  0.70019831  0.12442999  0.52296094     0.36100
H1039       H  0.62801213  0.00314774  0.51934082     0.16400
O1040       O  0.60534286  0.01926006  0.48938234    -0.60500
H1041       H  0.70852970  0.17529802  0.50423145     0.16500
O1042       O  0.73244314  0.15958026  0.53353998    -0.60600
H1043       H  0.76386722  0.16232012  0.53091157     0.43400
H1044       H  0.57261472  0.01240318  0.49248080     0.43400
C1045       C  0.56631961  0.09672119  0.44448802    -0.05700
C1046       C  0.56658587  0.11430695  0.42821798    -0.33100
C1047       C  0.52414198  0.09714659  0.41876306     0.36200
C1048       C  0.47981667  0.06148438  0.42541341    -0.06000
C1049       C  0.47965882  0.04341885  0.44153801    -0.33000
C1050       C  0.52186974  0.06070096  0.45103523     0.36100
H1051       H  0.59986298  0.14190079  0.42273726     0.16400
O1052       O  0.52655549  0.11613636  0.40314034    -0.60500
H1053       H  0.44623278  0.01638170  0.44713214     0.16500
O1054       O  0.51879691  0.04198725  0.46676136    -0.60600
H1055       H  0.50986290  0.06077778  0.47437530     0.43400
H1056       H  0.53090300  0.09479278  0.39517685     0.43400
C1057       C  0.42967642  0.95095443  0.54719512    -0.05700
C1058       C  0.43046648  0.92954994  0.56254621    -0.33100
C1059       C  0.47328377  0.94606902  0.57178595     0.36200
C1060       C  0.51678425  0.98515940  0.56588494    -0.06000
C1061       C  0.51565067  0.00710572  0.55076181    -0.33000
C1062       C  0.47324650  0.99038808  0.54144777     0.36100
H1063       H  0.39791116  0.89912612  0.56731404     0.16400
O1064       O  0.47222081  0.92265123  0.58628356    -0.60500
H1065       H  0.54826755  0.03701018  0.54577223     0.16500
O1066       O  0.47515184  0.01348522  0.52676082    -0.60600
H1067       H  0.48736851  0.99981271  0.51815123     0.43400
H1068       H  0.46494753  0.93925649  0.59537984     0.43400
C1069       C  0.34345714  0.94321917  0.49429937    -0.05700
C1070       C  0.31624529  0.90803023  0.48222963    -0.33100
C1071       C  0.30653109  0.92051228  0.46649858     0.36200
C1072       C  0.32327658  0.96906580  0.46264388    -0.06000
C1073       C  0.35181122  0.00446395  0.47457022    -0.33000
C1074       C  0.36239680  0.99184920  0.49022450     0.36100
H1075       H  0.30128826  0.87038992  0.48520145     0.16400
O1076       O  0.27960675  0.88473300  0.45516956    -0.60500
H1077       H  0.36587860  0.04205965  0.47177637     0.16500
O1078       O  0.38839401  0.02704766  0.50184322    -0.60600
H1079       H  0.42246998  0.03775651  0.49927005     0.43400
H1080       H  0.24573568  0.87482793  0.45780964     0.43400
C1081       C  0.08103553  0.25620980  0.61564342    -0.05700
C1082       C  0.12198940  0.28820803  0.62505534    -0.33100
C1083       C  0.16832655  0.30425278  0.61898552     0.36200
C1084       C  0.17492444  0.28841139  0.60324311    -0.06000
C1085       C  0.13450061  0.25443710  0.59418675    -0.33000
C1086       C  0.08783565  0.23841629  0.60023091     0.36100
H1087       H  0.11843123  0.30223533  0.63705998     0.16400
O1088       O  0.20696029  0.33637346  0.62839890    -0.60500
H1089       H  0.13901768  0.24188996  0.58200546     0.16500
O1090       O  0.04944098  0.20648635  0.59072640    -0.60600
H1091       H  0.04125616  0.17438106  0.59497272     0.43400
H1092       H  0.21780258  0.31673275  0.63449068     0.43400
C1093       C  0.81369743  0.13505412  0.59188452    -0.05700
C1094       C  0.85434423  0.13289147  0.58654948    -0.33100
C1095       C  0.89892530  0.15943798  0.59475239     0.36200
C1096       C  0.90381985  0.18877921  0.60879181    -0.06000
C1097       C  0.86363206  0.19230116  0.61368528    -0.33000
C1098       C  0.81933432  0.16629520  0.60539370     0.36100
H1099       H  0.85135640  0.10932343  0.57626673     0.16400
O1100       O  0.93657377  0.15407151  0.58947897    -0.60500
H1101       H  0.86619658  0.21498687  0.62421379     0.16500
O1102       O  0.78142072  0.17070959  0.61106555    -0.60600
H1103       H  0.78322411  0.19786613  0.60464001     0.43400
H1104       H  0.95118251  0.17668986  0.57996204     0.43400
C1105       C  0.48713111  0.09023336  0.72016172    -0.05700
C1106       C  0.52678308  0.12568790  0.72918573    -0.33100
C1107       C  0.57393978  0.14162349  0.72367040     0.36200
C1108       C  0.58176711  0.12256009  0.70877363    -0.06000
C1109       C  0.54152392  0.08928085  0.69932627    -0.33000
C1110       C  0.49487970  0.07317130  0.70489381     0.36100
H1111       H  0.52131825  0.13929498  0.74099264     0.16400
O1112       O  0.61175422  0.17560602  0.73291288    -0.60500
H1113       H  0.54580499  0.07410688  0.68769664     0.16500
O1114       O  0.45707838  0.03950139  0.69553122    -0.60600
H1115       H  0.44703847  0.05808567  0.68839663     0.43400
H1116       H  0.61663751  0.15760385  0.74204229     0.43400
C1117       C  0.67260112  0.10813817  0.66315156    -0.05700
C1118       C  0.63830264  0.10814876  0.65218903    -0.33100
C1119       C  0.62804593  0.08482900  0.63665154     0.36200
C1120       C  0.65255530  0.06112304  0.63150040    -0.06000
C1121       C  0.68762275  0.06160801  0.64221164    -0.33000
C1122       C  0.69802392  0.08528565  0.65791827     0.36100
H1123       H  0.61810179  0.12536871  0.65587722     0.16400
O1124       O  0.59299767  0.08446308  0.62675378    -0.60500
H1125       H  0.70726932  0.04398953  0.63832728     0.16500
O1126       O  0.73105008  0.08366594  0.66833413    -0.60600
H1127       H  0.76255960  0.11049267  0.66465574     0.43400
H1128       H  0.56273914  0.05553899  0.63022887     0.43400
C1129       C  0.74646812  0.85359806  0.10077025    -0.05700
C1130       C  0.76684088  0.89255598  0.08960714    -0.33100
C1131       C  0.78151719  0.93926016  0.09524252     0.36200
C1132       C  0.77645557  0.94759195  0.11238320    -0.06000
C1133       C  0.75879818  0.90851228  0.12363922    -0.33000
C1134       C  0.74310783  0.86188794  0.11790278     0.36100
H1135       H  0.76877403  0.88633770  0.07627460     0.16400
O1136       O  0.79762653  0.97558001  0.08369649    -0.60500
H1137       H  0.75529176  0.91353654  0.13695530     0.16500
O1138       O  0.72438011  0.82459944  0.12912318    -0.60600
H1139       H  0.69024482  0.81557557  0.13052499     0.43400
H1140       H  0.83246547  0.98732521  0.08247920     0.43400
C1141       C  0.82030292  0.72375016  0.08591038    -0.05700
C1142       C  0.82302699  0.69833253  0.09982083    -0.33100
C1143       C  0.86569169  0.71485164  0.10893173     0.36200
C1144       C  0.90752374  0.75766007  0.10421390    -0.06000
C1145       C  0.90574684  0.78145998  0.08964079    -0.33000
C1146       C  0.86281483  0.76493955  0.08054324     0.36100
H1147       H  0.79137699  0.66610290  0.10413784     0.16400
O1148       O  0.86592222  0.68847582  0.12239913    -0.60500
H1149       H  0.93733512  0.81411642  0.08557652     0.21900
O1150       O  0.86255201  0.79073852  0.06691661    -0.60600
H1151       H  0.87021784  0.77653006  0.05712083     0.43400
H1152       H  0.85051882  0.69641163  0.13173968     0.43400
C1153       C  0.67415321  0.59974969  0.15920550    -0.05700
C1154       C  0.69503102  0.64912906  0.15631358    -0.33100
C1155       C  0.68831725  0.66619054  0.14093450     0.36200
C1156       C  0.66145096  0.63368016  0.12793524    -0.06000
C1157       C  0.64236621  0.58432664  0.13065912    -0.33000
C1158       C  0.64788224  0.56729238  0.14619556     0.36100
H1159       H  0.71509523  0.67453252  0.16623604     0.16400
O1160       O  0.70908819  0.71474680  0.13864275    -0.60500
H1161       H  0.62219147  0.55864894  0.12082358     0.16500
O1162       O  0.62826549  0.51882268  0.14844934    -0.60600
H1163       H  0.59387002  0.50660191  0.15098335     0.43400
H1164       H  0.68642375  0.72354271  0.14379575     0.43400
C1165       C  0.74697105  0.60334792  0.94685941    -0.05700
C1166       C  0.75469592  0.57526865  0.93506392    -0.33100
C1167       C  0.80137934  0.58876994  0.92956807     0.36200
C1168       C  0.84129410  0.63127034  0.93578644    -0.06000
C1169       C  0.83340023  0.65839171  0.94789667    -0.33000
C1170       C  0.78718609  0.64487889  0.95346117     0.36100
H1171       H  0.72449518  0.54291209  0.93002201     0.16400
O1172       O  0.80727433  0.56080829  0.91780892    -0.60500
H1173       H  0.86320365  0.69126171  0.95283234     0.16500
O1174       O  0.78172078  0.67441257  0.96465035    -0.60600
H1175       H  0.78940066  0.66647719  0.97583673     0.43400
H1176       H  0.80303404  0.57240127  0.90676174     0.43400
C1177       C  0.64595123  0.60993419  0.99079058    -0.05700
C1178       C  0.65060845  0.65507556  0.99352750    -0.33100
C1179       C  0.66291238  0.67684947  0.00950272     0.36200
C1180       C  0.67113806  0.65343304  0.02303988    -0.06000
C1181       C  0.66417564  0.60720867  0.02030356    -0.33000
C1182       C  0.65184698  0.58565233  0.00438604     0.36100
H1183       H  0.64738403  0.67467156  0.98304725     0.16400
O1184       O  0.66784185  0.72139669  0.01157084    -0.60500
H1185       H  0.66932498  0.58792050  0.03045350     0.16500
O1186       O  0.64863873  0.54195930  0.00196653    -0.60600
H1187       H  0.61402359  0.51807633  0.00317429     0.43400
H1188       H  0.70158281  0.74442498  0.00843341     0.43400
C1189       C  0.25566672  0.46558180  0.04152292    -0.05700
C1190       C  0.25089172  0.48063203  0.05770588    -0.33100
C1191       C  0.20531276  0.46608352  0.06451782     0.36200
C1192       C  0.16360577  0.43565553  0.05518901    -0.06000
C1193       C  0.16828589  0.42295694  0.03875390    -0.33000
C1194       C  0.21348170  0.43826837  0.03176589     0.36100
H1195       H  0.28235202  0.50216774  0.06538175     0.16400
O1196       O  0.20194509  0.47956377  0.08064795    -0.60500
H1197       H  0.13654344  0.40006243  0.03136708     0.16500
O1198       O  0.21541851  0.42444213  0.01555278    -0.60600
H1199       H  0.21903226  0.45121393  0.00842083     0.43400
H1200       H  0.19993102  0.45368976  0.08792484     0.43400
C1201       C  0.52182713  0.58402387  0.06560765    -0.05700
C1202       C  0.48441244  0.59339952  0.06913190    -0.33100
C1203       C  0.44002592  0.56831821  0.06072115     0.36200
C1204       C  0.43247069  0.53329479  0.04845315    -0.06000
C1205       C  0.46947186  0.52312055  0.04536274    -0.33000
C1206       C  0.51338450  0.54767999  0.05379194     0.36100
H1207       H  0.49012595  0.62153190  0.07795946     0.16400
O1208       O  0.40553171  0.58044149  0.06388292    -0.60500
H1209       H  0.46458773  0.49591346  0.03623924     0.16500
O1210       O  0.54821776  0.53642322  0.05000663    -0.60600
H1211       H  0.54332994  0.51115785  0.05815440     0.43400
H1212       H  0.38830999  0.56191230  0.07403098     0.43400
C1213       C  0.23169743  0.10361525  0.87380920    -0.05700
C1214       C  0.26387542  0.14386370  0.86419676    -0.33100
C1215       C  0.28142858  0.19058546  0.87014243     0.36200
C1216       C  0.26693826  0.19819188  0.88601045    -0.06000
C1217       C  0.23282505  0.15820021  0.89524528    -0.33000
C1218       C  0.21552938  0.11133718  0.88935554     0.36100
H1219       H  0.27713713  0.13942325  0.85216274     0.16400
O1220       O  0.31521533  0.22817080  0.86081261    -0.60500
H1221       H  0.22057508  0.16309281  0.90742555     0.16500
O1222       O  0.18301705  0.07361794  0.89894283    -0.60600
H1223       H  0.20256141  0.06798175  0.90725265     0.43400
H1224       H  0.29659682  0.23728570  0.85328272     0.43400
C1225       C  0.57128642  0.52882069  0.93664792    -0.05700
C1226       C  0.56867521  0.49263353  0.92599040    -0.33100
C1227       C  0.52706918  0.46316250  0.91661724     0.36200
C1228       C  0.48682680  0.46973261  0.91751799    -0.06000
C1229       C  0.49074044  0.50811327  0.92727146    -0.33000
C1230       C  0.53212682  0.53709242  0.93689222     0.36100
H1231       H  0.59836231  0.48579884  0.92540718     0.16400
O1232       O  0.52572096  0.42699345  0.90701940    -0.60500
H1233       H  0.46067470  0.51429203  0.92811986     0.16500
O1234       O  0.53344944  0.57286387  0.94671857    -0.60600
H1235       H  0.54938897  0.60209582  0.93967990     0.43400
H1236       H  0.53648818  0.44098550  0.89565715     0.43400
C1237       C  0.34697529  0.43953186  0.99800801    -0.05700
C1238       C  0.38171148  0.46627701  0.98586083    -0.33100
C1239       C  0.37697812  0.44909725  0.96933124     0.36200
C1240       C  0.33697596  0.40434307  0.96474911    -0.06000
C1241       C  0.30389372  0.37650020  0.97726702    -0.33000
C1242       C  0.30863393  0.39372717  0.99373107     0.36100
H1243       H  0.41143461  0.50150816  0.98898051     0.16400
O1244       O  0.41116339  0.47695558  0.95772239    -0.60500
H1245       H  0.27341499  0.34168845  0.97422690     0.16500
O1246       O  0.27481319  0.36589935  0.00548094    -0.60600
H1247       H  0.28945389  0.35011733  0.01188260     0.43400
H1248       H  0.43586402  0.46724564  0.95843804     0.43400
C1249       C  0.05721662  0.51397721  0.76924732    -0.05700
C1250       C  0.02766603  0.52536809  0.77892241    -0.33100
C1251       C  0.04438989  0.57185829  0.78481578     0.36200
C1252       C  0.09169005  0.60830379  0.78124955    -0.06000
C1253       C  0.12129581  0.59766160  0.77137396    -0.33000
C1254       C  0.10455718  0.55078999  0.76546166     0.36100
H1255       H  0.99101299  0.49826532  0.78181933     0.16400
O1256       O  0.01390661  0.58140950  0.79399771    -0.60500
H1257       H  0.15776545  0.62541934  0.76858058     0.16500
O1258       O  0.13445274  0.54181357  0.75570868    -0.60600
H1259       H  0.15224679  0.53306726  0.76376671     0.43400
H1260       H  0.99968322  0.59367998  0.78572284     0.43400
C1261       C  0.84574597  0.23780190  0.73511815    -0.05700
C1262       C  0.80756314  0.24624098  0.73827974    -0.33100
C1263       C  0.76431509  0.22197081  0.72918452     0.36200
C1264       C  0.75797243  0.18785419  0.71667067    -0.06000
C1265       C  0.79552453  0.17826402  0.71390858    -0.33000
C1266       C  0.83871444  0.20246650  0.72300106     0.36100
H1267       H  0.81190862  0.27339494  0.74733752     0.16400
O1268       O  0.72934397  0.23353586  0.73220214    -0.60500
H1269       H  0.79158304  0.15194367  0.70454702     0.16500
O1270       O  0.87423012  0.19193546  0.71958268    -0.60600
H1271       H  0.86817262  0.16552569  0.72736867     0.43400
H1272       H  0.73613180  0.25977357  0.72422760     0.43400
C1273       C  0.00428975  0.30929915  0.69427487    -0.05700
C1274       C  0.01756508  0.27467785  0.69091709    -0.33100
C1275       C  0.00999016  0.25316932  0.67502515     0.36200
C1276       C  0.98794411  0.26529163  0.66217861    -0.06000
C1277       C  0.97289249  0.29838267  0.66560404    -0.33000
C1278       C  0.98141379  0.32080382  0.68142656     0.36100
H1279       H  0.03484359  0.26488514  0.70053295     0.16400
O1280       O  0.02536439  0.22105809  0.67202353    -0.60500
H1281       H  0.95655338  0.30857089  0.65576124     0.16500
O1282       O  0.96694780  0.35368296  0.68417951    -0.60600
H1283       H  0.99358752  0.38442766  0.67985514     0.43400
H1284       H  0.99697940  0.18907476  0.67419189     0.43400
C1285       C  0.99263509  0.30836509  0.79925866    -0.05700
C1286       C  0.00994350  0.34448553  0.81176879    -0.33100
C1287       C  0.02370279  0.33682162  0.82771355     0.36200
C1288       C  0.02073294  0.29278301  0.83132521    -0.06000
C1289       C  0.00495755  0.25740474  0.81874027    -0.33000
C1290       C  0.99080973  0.26465056  0.80292047     0.36100
H1291       H  0.01197841  0.37850105  0.80932711     0.16400
O1292       O  0.03634364  0.37101920  0.84004499    -0.60500
H1293       H  0.00100085  0.22270280  0.82153692     0.16500
O1294       O  0.97392470  0.22801259  0.79135355    -0.60600
H1295       H  0.93887386  0.20868261  0.79348561     0.43400
H1296       H  0.07123437  0.39320689  0.83844835     0.43400
C1297       C  0.10006610  0.28949826  0.88479132    -0.05700
C1298       C  0.13590651  0.33802218  0.88612321    -0.33100
C1299       C  0.17714384  0.35226251  0.89606769     0.36200
C1300       C  0.18412662  0.31756332  0.90441494    -0.06000
C1301       C  0.14744593  0.26920199  0.90336263    -0.33000
C1302       C  0.10595613  0.25517170  0.89378756     0.36100
H1303       H  0.13186419  0.36506183  0.87947985     0.16400
O1304       O  0.21127632  0.39996176  0.89687185    -0.60500
H1305       H  0.15147711  0.24159223  0.90958882     0.16500
O1306       O  0.07218828  0.20732699  0.89280513    -0.60600
H1307       H  0.08139419  0.19509945  0.88281882     0.43400
H1308       H  0.20093849  0.41316343  0.90624328     0.43400
C1309       C  0.23622296  0.43115806  0.77440525    -0.05700
C1310       C  0.19623475  0.38831491  0.78002162    -0.33100
C1311       C  0.15145319  0.36863570  0.77204591     0.36200
C1312       C  0.14493096  0.39181415  0.75806245    -0.06000
C1313       C  0.18522923  0.43381739  0.75203516    -0.33000
C1314       C  0.23034038  0.45340042  0.76000123     0.36100
H1315       H  0.19928872  0.36974801  0.79085479     0.16400
O1316       O  0.11396925  0.32729815  0.77847812    -0.60500
H1317       H  0.18160987  0.45243897  0.74132806     0.16500
O1318       O  0.26804675  0.49470133  0.75367220    -0.60600
H1319       H  0.26593961  0.52117764  0.75926783     0.43400
H1320       H  0.11512938  0.30084183  0.77245223     0.43400
C1321       C  0.32705061  0.43151330  0.82505072    -0.05700
C1322       C  0.28710380  0.41102898  0.83581959    -0.33100
C1323       C  0.29122152  0.39814774  0.85233982     0.36200
C1324       C  0.33558277  0.40481119  0.85819449    -0.06000
C1325       C  0.37477524  0.42316904  0.84716645    -0.33000
C1326       C  0.37093975  0.43648734  0.83081643     0.36100
H1327       H  0.25303951  0.40648300  0.83165234     0.16400
O1328       O  0.25147086  0.37823059  0.86254178    -0.60500
H1329       H  0.40906978  0.42828850  0.85134314     0.16500
O1330       O  0.41080342  0.45494955  0.82066736    -0.60600
H1331       H  0.40857755  0.42692404  0.81460120     0.43400
H1332       H  0.24688464  0.40532960  0.86593785     0.43400
C1333       C  0.49477986  0.43517126  0.71246745    -0.05700
C1334       C  0.53498375  0.44427509  0.72208637    -0.33100
C1335       C  0.56871370  0.49139997  0.72706715     0.36200
C1336       C  0.56215742  0.53021991  0.72252823    -0.06000
C1337       C  0.52129686  0.52039087  0.71314160    -0.33000
C1338       C  0.48785724  0.47374391  0.70827530     0.36100
H1339       H  0.54097039  0.41507667  0.72533933     0.16400
O1340       O  0.60725340  0.49876154  0.73662016    -0.60500
H1341       H  0.51454168  0.54896343  0.70969545     0.16500
O1342       O  0.44819687  0.46624572  0.69936229    -0.60600
H1343       H  0.42320805  0.45946800  0.70797541     0.43400
H1344       H  0.63261838  0.50384936  0.72839078     0.43400
C1345       C  0.50768429  0.60752316  0.76834449    -0.05700
C1346       C  0.46713806  0.60093027  0.75936079    -0.33100
C1347       C  0.42042405  0.56959192  0.76530176     0.36200
C1348       C  0.41386697  0.54464995  0.78051973    -0.06000
C1349       C  0.45497341  0.55452319  0.78995763    -0.33000
C1350       C  0.50116793  0.58482745  0.78391738     0.36100
H1351       H  0.47159974  0.61804792  0.74725985     0.16400
O1352       O  0.38186201  0.56247110  0.75582664    -0.60500
H1353       H  0.45187470  0.53730368  0.80192221     0.16500
O1354       O  0.53988270  0.59173007  0.79331240    -0.60600
H1355       H  0.54235129  0.56257807  0.79145549     0.43400
H1356       H  0.37260826  0.58539813  0.76040514     0.43400
C1357       C  0.85497841  0.79556243  0.87359397    -0.05700
C1358       C  0.88175618  0.81758050  0.88819493    -0.33100
C1359       C  0.91227456  0.80269940  0.89515612     0.36200
C1360       C  0.91542158  0.76438402  0.88774195    -0.06000
C1361       C  0.89024187  0.74382618  0.87285175    -0.33000
C1362       C  0.86048461  0.75890948  0.86576539     0.36100
H1363       H  0.87861536  0.84596608  0.89435517     0.16400
O1364       O  0.93631649  0.82374823  0.90978783    -0.60500
H1365       H  0.89244632  0.71465709  0.86687713     0.16500
O1366       O  0.83563187  0.73597537  0.85145315    -0.60600
H1367       H  0.80513154  0.70827587  0.85547894     0.43400
H1368       H  0.96712627  0.85174096  0.90615253     0.43400
C1369       C  0.75500601  0.78735410  0.82665086    -0.05700
C1370       C  0.70597667  0.75657100  0.82353537    -0.33100
C1371       C  0.69037416  0.73240262  0.80806338     0.36200
C1372       C  0.72401969  0.73969514  0.79526939    -0.06000
C1373       C  0.77283681  0.77250691  0.79818935    -0.33000
C1374       C  0.78843372  0.79567912  0.81376139     0.36100
H1375       H  0.67987381  0.74959170  0.83337155     0.16400
O1376       O  0.64210627  0.70256561  0.80548969    -0.60500
H1377       H  0.79930887  0.77956270  0.78848954     0.16500
O1378       O  0.83651089  0.82691762  0.81624143    -0.60600
H1379       H  0.85076690  0.80638405  0.81840198     0.43400
H1380       H  0.63479138  0.67126101  0.81029413     0.43400
C1381       C  0.42503185  0.95735782  0.76789202    -0.05700
C1382       C  0.42830522  0.92012625  0.75977716    -0.33100
C1383       C  0.45977793  0.90516696  0.76569108     0.36200
C1384       C  0.48826912  0.92726956  0.78002287    -0.06000
C1385       C  0.48317182  0.96308744  0.78844040    -0.33000
C1386       C  0.45240596  0.97833301  0.78245865     0.36100
H1387       H  0.40775749  0.90378221  0.74844861     0.16400
O1388       O  0.46274472  0.86954849  0.75722731    -0.60500
H1389       H  0.50407683  0.98061557  0.79958986     0.16500
O1390       O  0.44908546  0.01361598  0.79106987    -0.60600
H1391       H  0.47790189  0.04412429  0.78771412     0.43400
H1392       H  0.43950543  0.83938762  0.76294859     0.43400
C1393       C  0.63533355  0.80802811  0.75623249    -0.05700
C1394       C  0.59691282  0.81172978  0.74954010    -0.33100
C1395       C  0.57818126  0.83722273  0.75805427     0.36200
C1396       C  0.59735789  0.85940790  0.77379768    -0.06000
C1397       C  0.63664995  0.85677447  0.78019280    -0.33000
C1398       C  0.65547222  0.83160602  0.77168726     0.36100
H1399       H  0.58051821  0.79396467  0.73777799     0.16400
O1400       O  0.53995510  0.83851133  0.75106997    -0.60500
H1401       H  0.65279788  0.87376757  0.79207801     0.16500
O1402       O  0.69329098  0.82987011  0.77885655    -0.60600
H1403       H  0.67857804  0.80361260  0.78722405     0.43400
H1404       H  0.55436841  0.86639467  0.74336486     0.43400
C1405       C  0.75829114  0.85802916  0.61141458    -0.05700
C1406       C  0.71377041  0.85108060  0.61690210    -0.33100
C1407       C  0.69748375  0.88186423  0.61209059     0.36200
C1408       C  0.72574005  0.92097922  0.60142068    -0.06000
C1409       C  0.77047792  0.92801493  0.59581251    -0.33000
C1410       C  0.78663736  0.89655469  0.60063646     0.36100
H1411       H  0.69119995  0.82138923  0.62512167     0.16400
O1412       O  0.65338058  0.87270754  0.61778518    -0.60500
H1413       H  0.79257819  0.95736737  0.58742130     0.16500
O1414       O  0.83073987  0.90488814  0.59531944    -0.60600
H1415       H  0.82468684  0.88800505  0.58434351     0.43400
H1416       H  0.65992081  0.89086017  0.62849518     0.43400
C1417       C  0.75584079  0.76684690  0.65947743    -0.05700
C1418       C  0.76161500  0.80309088  0.67075571    -0.33100
C1419       C  0.73934372  0.79192842  0.68650046     0.36200
C1420       C  0.71031580  0.74364410  0.69128646    -0.06000
C1421       C  0.70520968  0.70723278  0.68014922    -0.33000
C1422       C  0.72814113  0.71858950  0.66438675     0.36100
H1423       H  0.78243924  0.84045198  0.66711223     0.16400
O1424       O  0.74517789  0.82860480  0.69690763    -0.60500
H1425       H  0.68348090  0.66989443  0.68368805     0.16500
O1426       O  0.72061376  0.68232291  0.65349012    -0.60600
H1427       H  0.74699084  0.67569905  0.65579558     0.43400
H1428       H  0.71746913  0.83310517  0.69448459     0.43400
C1429       C  0.89333977  0.50348816  0.70923602    -0.05700
C1430       C  0.92329501  0.49171592  0.69981813    -0.33100
C1431       C  0.93852603  0.46134801  0.70618498     0.36200
C1432       C  0.92372715  0.44126981  0.72222006    -0.06000
C1433       C  0.89203893  0.45080816  0.73146881    -0.33000
C1434       C  0.87726070  0.48213583  0.72519225     0.36100
H1435       H  0.93640255  0.50705019  0.68750002     0.16400
O1436       O  0.96892959  0.45235695  0.69673835    -0.60500
H1437       H  0.88065706  0.43589433  0.74395220     0.16500
O1438       O  0.84754458  0.49170982  0.73480115    -0.60600
H1439       H  0.86911964  0.51753490  0.74268110     0.43400
H1440       H  0.94781152  0.42692235  0.68866966     0.43400
C1441       C  0.82938284  0.61632051  0.71387061    -0.05700
C1442       C  0.80250713  0.59348290  0.72840606    -0.33100
C1443       C  0.77644738  0.61126453  0.73710518     0.36200
C1444       C  0.77673427  0.65288254  0.73140346    -0.06000
C1445       C  0.80519152  0.67672685  0.71729112    -0.33000
C1446       C  0.83102873  0.65895676  0.70857369     0.36100
H1447       H  0.80051201  0.56081636  0.73285740     0.16400
O1448       O  0.74940677  0.58643853  0.75077025    -0.60500
H1449       H  0.80674627  0.70902674  0.71264149     0.16500
O1450       O  0.85825121  0.68418103  0.69498378    -0.60600
H1451       H  0.83525334  0.67521225  0.68551182     0.43400
H1452       H  0.77136160  0.59990558  0.76054815     0.43400
C1453       C  0.83036764  0.12062285  0.88670553    -0.05700
C1454       C  0.87029882  0.12324998  0.89488795    -0.33100
C1455       C  0.91718609  0.15616156  0.88968158     0.36200
C1456       C  0.92461036  0.18646079  0.87587756    -0.06000
C1457       C  0.88430448  0.18175421  0.86723093    -0.33000
C1458       C  0.83776899  0.14939978  0.87250948     0.36100
H1459       H  0.86528713  0.10143175  0.90587650     0.16400
O1460       O  0.95521732  0.15816816  0.89814471    -0.60500
H1461       H  0.88858235  0.20418007  0.85650209     0.16500
O1462       O  0.79977439  0.14732421  0.86396661    -0.60600
H1463       H  0.78951885  0.12044814  0.85585654     0.43400
H1464       H  0.96057016  0.17934028  0.90798947     0.43400
C1465       C  0.82166808  0.27893557  0.94796393    -0.05700
C1466       C  0.81697789  0.23854018  0.95646774    -0.33100
C1467       C  0.78829815  0.19231114  0.95011404     0.36200
C1468       C  0.76249458  0.18517298  0.93513170    -0.06000
C1469       C  0.76522434  0.22505969  0.92691360    -0.33000
C1470       C  0.79475347  0.27173828  0.93316227     0.36100
H1471       H  0.83679886  0.24256200  0.96793530     0.16400
O1472       O  0.78547997  0.15419673  0.95874768    -0.60500
H1473       H  0.74591358  0.22023254  0.91525048     0.16500
O1474       O  0.79758907  0.30980706  0.92453116    -0.60600
H1475       H  0.77210569  0.31490143  0.92944888     0.43400
H1476       H  0.81527496  0.15379881  0.95581858     0.43400
C1477       C  0.74354468  0.86074353  0.88029136    -0.05700
C1478       C  0.76390881  0.88268585  0.89585871    -0.33100
C1479       C  0.74642076  0.90833945  0.90503416     0.36200
C1480       C  0.70791241  0.91289565  0.89870887    -0.06000
C1481       C  0.68604831  0.88879968  0.88363748    -0.33000
C1482       C  0.70327368  0.86320246  0.87450700     0.36100
H1483       H  0.79436620  0.88104558  0.90080684     0.16400
O1484       O  0.76827025  0.92985796  0.91991267    -0.60500
H1485       H  0.65597670  0.89082321  0.87849393     0.16500
O1486       O  0.67997366  0.84057863  0.85993051    -0.60600
H1487       H  0.69191919  0.86612913  0.85127524     0.43400
H1488       H  0.74949854  0.90607280  0.92874156     0.43400
C1489       C  0.61649871  0.98221835  0.85899071    -0.05700
C1490       C  0.65049864  0.98071216  0.84819305    -0.33100
C1491       C  0.63689391  0.95844955  0.83230616     0.36200
C1492       C  0.58891055  0.93829483  0.82692339    -0.06000
C1493       C  0.55507303  0.93939140  0.83792383    -0.33000
C1494       C  0.56845757  0.96100592  0.85375756     0.36100
H1495       H  0.68760985  0.99655614  0.85213597     0.16400
O1496       O  0.67116334  0.95898330  0.82185768    -0.60500
H1497       H  0.51793529  0.92417862  0.83409333     0.16500
O1498       O  0.53444449  0.96237641  0.86383727    -0.60600
H1499       H  0.53638058  0.99339028  0.86127888     0.43400
H1500       H  0.67297846  0.93016091  0.82494196     0.43400
C1501       C  0.43734407  0.20493765  0.94791391    -0.05700
C1502       C  0.41337416  0.22152825  0.95854370    -0.33100
C1503       C  0.39567342  0.25032237  0.95244223     0.36200
C1504       C  0.40181102  0.26353264  0.93538209    -0.06000
C1505       C  0.42783512  0.24900732  0.92495379    -0.33000
C1506       C  0.44511478  0.21980826  0.93099889     0.36100
H1507       H  0.40696865  0.21119824  0.97166488     0.16400
O1508       O  0.37059067  0.26335324  0.96314065    -0.60500
H1509       H  0.43360109  0.25891751  0.91178296     0.16500
O1510       O  0.46873915  0.20552500  0.92010935    -0.60600
H1511       H  0.44312841  0.17672283  0.91432130     0.43400
H1512       H  0.39510283  0.29417121  0.96823947     0.43400
C1513       C  0.50771292  0.09809186  0.94153579    -0.05700
C1514       C  0.50617042  0.05590734  0.94698815    -0.33100
C1515       C  0.53101987  0.03686890  0.93845312     0.36200
C1516       C  0.55887678  0.06004503  0.92403934    -0.06000
C1517       C  0.55971244  0.10172676  0.91833492    -0.33000
C1518       C  0.53442410  0.12062988  0.92685947     0.36100
H1519       H  0.48581215  0.03743216  0.95810464     0.16400
O1520       O  0.52894056  0.99633403  0.94477573    -0.60500
H1521       H  0.58109758  0.12063792  0.90744845     0.16500
O1522       O  0.53819952  0.16246877  0.92115719    -0.60600
H1523       H  0.51510988  0.15274909  0.91169350     0.43400
H1524       H  0.50077278  0.96920253  0.93923713     0.43400
C1525       C  0.60940128  0.79266702  0.05538179    -0.05700
C1526       C  0.63969682  0.83357143  0.04592261    -0.33100
C1527       C  0.62360120  0.86325339  0.03964477     0.36200
C1528       C  0.57632279  0.85306937  0.04287679    -0.06000
C1529       C  0.54553367  0.81226427  0.05230166    -0.33000
C1530       C  0.56153000  0.78169962  0.05836893     0.36100
H1531       H  0.67661301  0.84328163  0.04345413     0.16400
O1532       O  0.65523611  0.90350390  0.03086643    -0.60500
H1533       H  0.50883451  0.80352471  0.05463231     0.16500
O1534       O  0.53031784  0.74185661  0.06737965    -0.60600
H1535       H  0.51531697  0.71555959  0.05895833     0.43400
H1536       H  0.65691543  0.89190034  0.01943254     0.43400
C1537       C  0.58158484  0.94591117  0.99462575    -0.05700
C1538       C  0.61046597  0.99470888  0.99075233    -0.33100
C1539       C  0.63472065  0.00890885  0.97523520     0.36200
C1540       C  0.62944641  0.97398156  0.96323808    -0.06000
C1541       C  0.59917058  0.92534088  0.96700415    -0.33000
C1542       C  0.57570638  0.91125935  0.98250826     0.36100
H1543       H  0.61578881  0.02176565  0.00000991     0.16400
O1544       O  0.66248007  0.05690547  0.97179190    -0.60500
H1545       H  0.59415928  0.89788487  0.95796983     0.16500
O1546       O  0.54771565  0.86321979  0.98585325    -0.60600
H1547       H  0.51459998  0.85503277  0.98281385     0.43400
H1548       H  0.69432863  0.06671444  0.97676434     0.43400
C1549       C  0.89330791  0.19425074  0.38512003    -0.05700
C1550       C  0.86486079  0.15504532  0.39570731    -0.33100
C1551       C  0.83905460  0.10824891  0.38943018     0.36200
C1552       C  0.84094951  0.09945834  0.37216711    -0.06000
C1553       C  0.87015627  0.13849859  0.36156816    -0.33000
C1554       C  0.89606915  0.18554801  0.36790111     0.36100
H1555       H  0.86156920  0.16066377  0.40899571     0.16400
O1556       O  0.80977045  0.07196023  0.40015755    -0.60500
H1557       H  0.87250721  0.13265703  0.34823540     0.16500
O1558       O  0.92474512  0.22235938  0.35725464    -0.60600
H1559       H  0.90285872  0.23130569  0.35166888     0.43400
H1560       H  0.83082055  0.06141549  0.40541523     0.43400
C1561       C  0.83465920  0.26937425  0.43600378    -0.05700
C1562       C  0.79292263  0.25625241  0.42647265    -0.33100
C1563       C  0.74711065  0.22733774  0.43325693     0.36200
C1564       C  0.74215882  0.21075622  0.44990675    -0.06000
C1565       C  0.78385699  0.22787579  0.45989926    -0.33000
C1566       C  0.82966102  0.25660731  0.45308941     0.36100
H1567       H  0.79558118  0.26655909  0.41337971     0.16400
O1568       O  0.70783555  0.21357566  0.42314877    -0.60500
H1569       H  0.78142547  0.21728829  0.47294721     0.16500
O1570       O  0.86911031  0.27059193  0.46314848    -0.60600
H1571       H  0.87458319  0.24290815  0.46323192     0.43400
H1572       H  0.69808777  0.23792087  0.42511465     0.43400
C1573       C  0.09982293  0.54287976  0.27895751    -0.05700
C1574       C  0.10803317  0.55685880  0.26199051    -0.33100
C1575       C  0.09394337  0.58841896  0.25557458     0.36200
C1576       C  0.07114918  0.60631265  0.26614375    -0.06000
C1577       C  0.06541221  0.59470746  0.28320924    -0.33000
C1578       C  0.08045095  0.56427366  0.28974461     0.36100
H1579       H  0.12318913  0.54156290  0.25347341     0.16400
O1580       O  0.09984871  0.59914221  0.23873191    -0.60500
H1581       H  0.04831611  0.60861593  0.29146802     0.16500
O1582       O  0.07441300  0.55460826  0.30665807    -0.60600
H1583       H  0.10563489  0.57778449  0.31184803     0.43400
H1584       H  0.06979088  0.57427548  0.23331191     0.43400
C1585       C  0.06807497  0.42437170  0.32229629    -0.05700
C1586       C  0.09063961  0.40792617  0.33330010    -0.33100
C1587       C  0.07439785  0.39550437  0.34990428     0.36200
C1588       C  0.03492368  0.39939401  0.35570848    -0.06000
C1589       C  0.01066721  0.41297848  0.34435912    -0.33000
C1590       C  0.02680795  0.42533330  0.32782533     0.36100
H1591       H  0.12211044  0.40653684  0.32925393     0.16400
O1592       O  0.09791322  0.38041044  0.36038929    -0.60500
H1593       H  0.97974261  0.41535629  0.34842121     0.16500
O1594       O  0.00245422  0.43934066  0.31728440    -0.60600
H1595       H  0.98011619  0.41006020  0.31087146     0.43400
H1596       H  0.07963542  0.34488432  0.35965467     0.43400
C1597       C  0.26951123  0.12262214  0.38866533    -0.05700
C1598       C  0.29789110  0.15902408  0.37722804    -0.33100
C1599       C  0.28482962  0.19200902  0.37193743     0.36200
C1600       C  0.24185954  0.18892979  0.37775852    -0.06000
C1601       C  0.21277102  0.15221980  0.38903877    -0.33000
C1602       C  0.22609626  0.11895316  0.39441764     0.36100
H1603       H  0.33149802  0.16307373  0.37266488     0.16400
O1604       O  0.31537360  0.22810765  0.36135767    -0.60500
H1605       H  0.17955556  0.14910512  0.39359760     0.16500
O1606       O  0.19747562  0.08449319  0.40581781    -0.60600
H1607       H  0.17455379  0.05662617  0.39891926     0.43400
H1608       H  0.33607034  0.25548768  0.36885649     0.43400
C1609       C  0.16479509  0.28844459  0.38512635    -0.05700
C1610       C  0.12715013  0.25466987  0.39521205    -0.33100
C1611       C  0.09576729  0.26626756  0.40357603     0.36200
C1612       C  0.10239099  0.31295839  0.40243390    -0.06000
C1613       C  0.14187650  0.34758018  0.39315784    -0.33000
C1614       C  0.17262579  0.33560074  0.38447278     0.36100
H1615       H  0.12063329  0.21832913  0.39605645     0.16400
O1616       O  0.05864847  0.23151395  0.41282921    -0.60500
H1617       H  0.14786836  0.38367376  0.39203908     0.16500
O1618       O  0.20986169  0.37017582  0.37522011    -0.60600
H1619       H  0.23701817  0.38622876  0.38322780     0.43400
H1620       H  0.03348649  0.21163524  0.40449470     0.43400
C1621       C  0.42372000  0.51833665  0.27021804    -0.05700
C1622       C  0.42327019  0.55749389  0.26256788    -0.33100
C1623       C  0.45302595  0.60458540  0.26849104     0.36200
C1624       C  0.48374147  0.61301236  0.28227480    -0.06000
C1625       C  0.48148121  0.57330217  0.29050900    -0.33000
C1626       C  0.45219660  0.52664865  0.28460354     0.36100
H1627       H  0.40126881  0.55187029  0.25155213     0.16400
O1628       O  0.45219831  0.64187387  0.26058082    -0.60500
H1629       H  0.50382088  0.57822105  0.30135976     0.16500
O1630       O  0.45168154  0.48934436  0.29305355    -0.60600
H1631       H  0.48151141  0.48975222  0.28955757     0.43400
H1632       H  0.42731660  0.64577624  0.26660793     0.43400
C1633       C  0.49196639  0.44522179  0.22156557    -0.05700
C1634       C  0.53321750  0.45337672  0.23038199    -0.33100
C1635       C  0.57922724  0.48108213  0.22332938     0.36200
C1636       C  0.58451757  0.50037192  0.20701061    -0.06000
C1637       C  0.54258310  0.48940261  0.19790974    -0.33000
C1638       C  0.49693155  0.46245966  0.20505570     0.36100
H1639       H  0.52997371  0.44006385  0.24309946     0.16400
O1640       O  0.61853143  0.48916199  0.23256597    -0.60500
H1641       H  0.54490377  0.50292240  0.18528326     0.16500
O1642       O  0.45736855  0.45387229  0.19585374    -0.60600
H1643       H  0.44569310  0.42192969  0.19060268     0.43400
H1644       H  0.62543811  0.51660216  0.24007398     0.43400
C1645       C  0.21873516  0.39378549  0.25675766    -0.05700
C1646       C  0.22121387  0.43625192  0.25103351    -0.33100
C1647       C  0.19409251  0.45444802  0.25872427     0.36200
C1648       C  0.16379482  0.43033721  0.27254436    -0.06000
C1649       C  0.16022042  0.38705955  0.27782194    -0.33000
C1650       C  0.18715298  0.36895050  0.27021352     0.36100
H1651       H  0.24526820  0.45627926  0.24082487     0.16400
O1652       O  0.19924127  0.49687179  0.25303342    -0.60500
H1653       H  0.13677956  0.36702044  0.28816245     0.16500
O1654       O  0.18218264  0.32679166  0.27617964    -0.60600
H1655       H  0.20347835  0.33599079  0.28616449     0.43400
H1656       H  0.17599375  0.48777993  0.24364815     0.43400
C1657       C  0.28739703  0.30892872  0.29906008    -0.05700
C1658       C  0.29993567  0.34553686  0.31116812    -0.33100
C1659       C  0.27882876  0.33521258  0.32726619     0.36200
C1660       C  0.24517838  0.28766877  0.33155645    -0.06000
C1661       C  0.23162711  0.25146452  0.31936450    -0.33000
C1662       C  0.25181184  0.26170968  0.30323066     0.36100
H1663       H  0.32662497  0.38224179  0.30822912     0.16400
O1664       O  0.29398916  0.37113967  0.33905792    -0.60500
H1665       H  0.20625700  0.21452572  0.32257431     0.16500
O1666       O  0.23832949  0.22467376  0.29198986    -0.60600
H1667       H  0.20805821  0.21972093  0.28690501     0.43400
H1668       H  0.27157068  0.38366298  0.33802694     0.43400
C1669       C  0.24622549  0.87094727  0.05380805    -0.05700
C1670       C  0.24343525  0.83131791  0.06227040    -0.33100
C1671       C  0.21100896  0.78418267  0.05701209     0.36200
C1672       C  0.18100906  0.77626412  0.04305039    -0.06000
C1673       C  0.18568504  0.81628174  0.03425451    -0.33000
C1674       C  0.21754739  0.86295852  0.03952750     0.36100
H1675       H  0.26497213  0.83680845  0.07340762     0.16400
O1676       O  0.20862927  0.74643884  0.06572360    -0.60500
H1677       H  0.16368460  0.81171711  0.02333562     0.16500
O1678       O  0.22052531  0.90065995  0.03055294    -0.60600
H1679       H  0.19190283  0.90274230  0.03391383     0.43400
H1680       H  0.23182154  0.73930802  0.06002107     0.43400
C1681       C  0.17798048  0.93184437  0.10046309    -0.05700
C1682       C  0.16942573  0.89418162  0.11133139    -0.33100
C1683       C  0.12311486  0.86108466  0.11652068     0.36200
C1684       C  0.08370183  0.86532287  0.11114633    -0.06000
C1685       C  0.09171702  0.90287938  0.10032112    -0.33000
C1686       C  0.13850575  0.93612172  0.09496484     0.36100
H1687       H  0.19874308  0.88947795  0.11559839     0.16400
O1688       O  0.11674889  0.82406082  0.12670680    -0.60500
H1689       H  0.06182847  0.90681458  0.09619322     0.16500
O1690       O  0.14501179  0.97213570  0.08425003    -0.60600
H1691       H  0.13968309  0.95790080  0.07280465     0.43400
H1692       H  0.11008091  0.79724873  0.11892703     0.43400
C1693       C  0.49924812  0.95379677  0.04671542    -0.05700
C1694       C  0.50144691  0.99624909  0.04118308    -0.33100
C1695       C  0.47756614  0.01634883  0.04980253     0.36200
C1696       C  0.45010275  0.99405276  0.06439354    -0.06000
C1697       C  0.44817202  0.95177015  0.07003203    -0.33000
C1698       C  0.47211180  0.93161506  0.06136499     0.36100
H1699       H  0.52189739  0.01429945  0.03003147     0.16400
O1700       O  0.48043031  0.05722063  0.04346361    -0.60500
H1701       H  0.42697717  0.93338056  0.08101527     0.16500
O1702       O  0.46775648  0.88964485  0.06721294    -0.60600
H1703       H  0.43832325  0.86377942  0.06179910     0.43400
H1704       H  0.50926434  0.08406917  0.04880264     0.43400
C1705       C  0.38431411  0.08259639  0.02617120    -0.05700
C1706       C  0.37077041  0.04697725  0.01364633    -0.33100
C1707       C  0.39356681  0.05794099  0.99790401     0.36200
C1708       C  0.42987405  0.10512127  0.99445577    -0.06000
C1709       C  0.44462656  0.14019660  0.00706921    -0.33000
C1710       C  0.42257584  0.12930288  0.02284663     0.36100
H1711       H  0.34211395  0.01063839  0.01597961     0.16400
O1712       O  0.37772752  0.02327224  0.98561454    -0.60500
H1713       H  0.47238478  0.17677366  0.00445726     0.16500
O1714       O  0.43820872  0.16499462  0.03475653    -0.60600
H1715       H  0.41887909  0.18072645  0.03289893     0.43400
H1716       H  0.39892025  0.00925502  0.98644312     0.43400
C1717       C  0.57419273  0.09447357  0.22085043    -0.05700
C1718       C  0.55665546  0.11618599  0.23196785    -0.33100
C1719       C  0.52548085  0.13172098  0.22629503     0.36200
C1720       C  0.51261959  0.12688808  0.20912102    -0.06000
C1721       C  0.53232553  0.10693319  0.19799073    -0.33000
C1722       C  0.56225107  0.09036703  0.20377129     0.36100
H1723       H  0.56511805  0.11877485  0.24526555     0.16400
O1724       O  0.50691479  0.15013830  0.23773415    -0.60500
H1725       H  0.52366775  0.10280308  0.18470152     0.16500
O1726       O  0.57885571  0.06923851  0.19267590    -0.60600
H1727       H  0.60809928  0.09620032  0.18761337     0.43400
H1728       H  0.47771481  0.12192089  0.24227936     0.43400
C1729       C  0.38978715  0.07433231  0.12996263    -0.05700
C1730       C  0.43776582  0.10775207  0.13380970    -0.33100
C1731       C  0.45033940  0.13007713  0.14958804     0.36200
C1732       C  0.41472710  0.11988187  0.16184934    -0.06000
C1733       C  0.36648084  0.08834100  0.15782156    -0.33000
C1734       C  0.35387582  0.06521590  0.14207558     0.36100
H1735       H  0.46593100  0.11585083  0.12469252     0.16400
O1736       O  0.49791170  0.16080646  0.15312470    -0.60500
H1737       H  0.33877119  0.07975956  0.16717875     0.16500
O1738       O  0.30632587  0.03426289  0.13861185    -0.60600
H1739       H  0.29942902  0.00296825  0.14329095     0.43400
H1740       H  0.50418875  0.19283666  0.14948591     0.43400
C1741       C  0.36792869  0.24522829  0.23468776    -0.05700
C1742       C  0.34289228  0.21753908  0.22051526    -0.33100
C1743       C  0.35961961  0.19185129  0.21116988     0.36200
C1744       C  0.40259464  0.19312192  0.21575781    -0.06000
C1745       C  0.42674104  0.21921120  0.23032902    -0.33000
C1746       C  0.41006230  0.24529580  0.23965292     0.36100
H1747       H  0.31040201  0.21649605  0.21629725     0.16400
O1748       O  0.33369551  0.16618391  0.19739747    -0.60500
H1749       H  0.45965201  0.22072148  0.23428195     0.16500
O1750       O  0.43582835  0.27131652  0.25339242    -0.60600
H1751       H  0.46092547  0.30256081  0.24882045     0.43400
H1752       H  0.31151912  0.13346779  0.20166780     0.43400
C1753       C  0.09706126  0.29678450  0.10175779    -0.05700
C1754       C  0.10444424  0.26367966  0.09247522    -0.33100
C1755       C  0.13564954  0.24828221  0.09836649     0.36200
C1756       C  0.15927134  0.26531330  0.11394557    -0.06000
C1757       C  0.14979423  0.29678598  0.12345148    -0.33000
C1758       C  0.11933957  0.31247691  0.11749848     0.36100
H1759       H  0.08763707  0.25130731  0.08027247     0.16400
O1760       O  0.14252374  0.21662764  0.08882666    -0.60500
H1761       H  0.16691222  0.31055045  0.13551916     0.16500
O1762       O  0.11233299  0.34400927  0.12708036    -0.60600
H1763       H  0.08516346  0.32359108  0.13465809     0.43400
H1764       H  0.16770097  0.23671852  0.08053197     0.43400
C1765       C  0.30355360  0.14436096  0.08994830    -0.05700
C1766       C  0.32843252  0.17259025  0.10401173    -0.33100
C1767       C  0.31191202  0.19921834  0.11291193     0.36200
C1768       C  0.26950149  0.19857572  0.10787065    -0.06000
C1769       C  0.24586763  0.17228943  0.09329252    -0.33000
C1770       C  0.26244360  0.14548548  0.08438629     0.36100
H1771       H  0.36049452  0.17323645  0.10851226     0.16400
O1772       O  0.33807355  0.22615268  0.12645153    -0.60500
H1773       H  0.21343142  0.17122169  0.08900260     0.16500
O1774       O  0.23689673  0.11906800  0.07067952    -0.60600
H1775       H  0.25004228  0.14134528  0.06101250     0.43400
H1776       H  0.32939627  0.20307627  0.13584700     0.43400
C1777       C  0.28032403  0.31274810  0.19410539    -0.05700
C1778       C  0.31606152  0.31575018  0.18307060    -0.33100
C1779       C  0.30411058  0.29465608  0.16698831     0.36200
C1780       C  0.25600163  0.27141088  0.16157324    -0.06000
C1781       C  0.22032031  0.26741678  0.17280581    -0.33000
C1782       C  0.23199898  0.28716417  0.18898033     0.36100
H1783       H  0.35339440  0.33456828  0.18691942     0.16400
O1784       O  0.33995851  0.29967420  0.15634078    -0.60500
H1785       H  0.18304847  0.24962408  0.16889521     0.16500
O1786       O  0.19610362  0.28362740  0.19930312    -0.60600
H1787       H  0.18268132  0.25185570  0.20477940     0.43400
H1788       H  0.34618845  0.27351091  0.15944587     0.43400
C1789       C  0.15464617  0.93934663  0.61308106    -0.05700
C1790       C  0.15650973  0.90028857  0.62003184    -0.33100
C1791       C  0.12597723  0.85346054  0.61457253     0.36200
C1792       C  0.09177079  0.84407937  0.60190105    -0.06000
C1793       C  0.08900741  0.88298005  0.59507740    -0.33000
C1794       C  0.12026837  0.93038150  0.60054207     0.36100
H1795       H  0.18250420  0.90595804  0.62971632     0.16400
O1796       O  0.12985590  0.81702818  0.62186847    -0.60500
H1797       H  0.06353007  0.87684492  0.58515062     0.16500
O1798       O  0.11676652  0.96735994  0.59359423    -0.60600
H1799       H  0.09417516  0.97147982  0.60098907     0.43400
H1800       H  0.15813889  0.81798284  0.61644048     0.43400
C1801       C  0.15907861  0.78071891  0.55461759    -0.05700
C1802       C  0.16442991  0.81006711  0.54089281    -0.33100
C1803       C  0.20964178  0.84200680  0.53438759     0.36200
C1804       C  0.25152957  0.84566852  0.54164069    -0.06000
C1805       C  0.24631362  0.81595656  0.55533202    -0.33000
C1806       C  0.20051908  0.78336412  0.56173806     0.36100
H1807       H  0.13326680  0.80909731  0.53530767     0.16400
O1808       O  0.21232698  0.87136514  0.52146465    -0.60500
H1809       H  0.27773413  0.81796869  0.56109452     0.16500
O1810       O  0.19699826  0.75635271  0.57552221    -0.60600
H1811       H  0.19624875  0.72733831  0.57089244     0.43400
H1812       H  0.20436893  0.85134060  0.51114327     0.43400
C1813       C  0.88238029  0.71471298  0.58942324    -0.05700
C1814       C  0.87966570  0.75353188  0.58266067    -0.33100
C1815       C  0.85369827  0.77222272  0.59081472     0.36200
C1816       C  0.83015373  0.75268986  0.60628405    -0.06000
C1817       C  0.83112990  0.71251771  0.61262406    -0.33000
C1818       C  0.85664549  0.69356953  0.60442196     0.36100
H1819       H  0.89878111  0.77043930  0.57117059     0.16400
O1820       O  0.85364267  0.81103704  0.58385777    -0.60500
H1821       H  0.81263826  0.69588543  0.62423694     0.16500
O1822       O  0.85663891  0.65473547  0.61143327    -0.60600
H1823       H  0.88146014  0.66818351  0.62035695     0.43400
H1824       H  0.82645968  0.79731161  0.57579828     0.43400
C1825       C  0.95236274  0.62777672  0.62952751    -0.05700
C1826       C  0.95750283  0.66330082  0.64110408    -0.33100
C1827       C  0.93438975  0.65087791  0.65682449     0.36200
C1828       C  0.90658030  0.60231985  0.66137066    -0.06000
C1829       C  0.90081509  0.56685814  0.64970723    -0.33000
C1830       C  0.92300861  0.57913652  0.63390184     0.36100
H1831       H  0.97934985  0.70090712  0.63792704     0.16400
O1832       O  0.94171614  0.68645273  0.66802085    -0.60500
H1833       H  0.87966109  0.52925606  0.65300734     0.16500
O1834       O  0.91660733  0.54320440  0.62301063    -0.60600
H1835       H  0.94217006  0.53585732  0.62589699     0.43400
H1836       H  0.91755907  0.69567435  0.66501402     0.43400
C1837       C  0.82881566  0.60055861  0.44503938    -0.05700
C1838       C  0.78973468  0.56992612  0.43481026    -0.33100
C1839       C  0.75645237  0.58340797  0.42957623     0.36200
C1840       C  0.76268036  0.62861528  0.43432382    -0.06000
C1841       C  0.80155298  0.65856534  0.44476028    -0.33000
C1842       C  0.83436717  0.64514594  0.44998855     0.36100
H1843       H  0.78463959  0.53529226  0.43106391     0.16400
O1844       O  0.71906991  0.55279074  0.41941035    -0.60500
H1845       H  0.80759474  0.69349518  0.44858417     0.16500
O1846       O  0.87259352  0.67666557  0.45969234    -0.60600
H1847       H  0.89901501  0.69524407  0.45160874     0.43400
H1848       H  0.69280350  0.53187792  0.42723437     0.43400
C1849       C  0.92489909  0.60218675  0.49189634    -0.05700
C1850       C  0.88895397  0.59759725  0.50315237    -0.33100
C1851       C  0.90022847  0.61760338  0.51930413     0.36200
C1852       C  0.94834827  0.64298429  0.52466417    -0.06000
C1853       C  0.98448810  0.64699782  0.51357317    -0.33000
C1854       C  0.97299737  0.62640824  0.49734370     0.36100
H1855       H  0.85169733  0.57944298  0.49920951     0.16400
O1856       O  0.86390648  0.61343808  0.52954311    -0.60500
H1857       H  0.02173403  0.66609795  0.51751027     0.16500
O1858       O  0.00918698  0.63280904  0.48661270    -0.60600
H1859       H  0.01462956  0.60570326  0.48893759     0.43400
H1860       H  0.86207912  0.64281589  0.52750575     0.43400
C1861       C  0.93107065  0.52701660  0.43702720    -0.05700
C1862       C  0.90253037  0.49928256  0.42340398    -0.33100
C1863       C  0.91515958  0.47070344  0.41370137     0.36200
C1864       C  0.95775451  0.47006124  0.41711667    -0.06000
C1865       C  0.98798601  0.50003051  0.43000995    -0.33000
C1866       C  0.97489608  0.52801714  0.43997631     0.36100
H1867       H  0.86909320  0.49818096  0.42057026     0.16400
O1868       O  0.88550655  0.44344045  0.40083743    -0.60500
H1869       H  0.02083375  0.50001874  0.43292233     0.16500
O1870       O  0.00486122  0.55536642  0.45274883    -0.60600
H1871       H  0.02559685  0.58747412  0.44776815     0.43400
H1872       H  0.85887528  0.41489780  0.40634397     0.43400
C1873       C  0.17961427  0.45067248  0.54062321    -0.05700
C1874       C  0.20602993  0.47262479  0.55529249    -0.33100
C1875       C  0.23730978  0.45863268  0.56211619     0.36200
C1876       C  0.24188319  0.42149870  0.55442658    -0.06000
C1877       C  0.21697331  0.40086726  0.53951503    -0.33000
C1878       C  0.18632364  0.41501187  0.53257365     0.36100
H1879       H  0.20193199  0.50018341  0.56165801     0.16400
O1880       O  0.26061364  0.47920279  0.57690646    -0.60500
H1881       H  0.22027592  0.37251793  0.53337828     0.16500
O1882       O  0.16216540  0.39240490  0.51812219    -0.60600
H1883       H  0.13284195  0.36303147  0.52195753     0.43400
H1884       H  0.29085196  0.50825549  0.57349889     0.43400
C1885       C  0.07205411  0.51955303  0.54774441    -0.05700
C1886       C  0.09858494  0.55006797  0.56113822    -0.33100
C1887       C  0.08155548  0.57633921  0.57011928     0.36200
C1888       C  0.03690514  0.57204709  0.56591205    -0.06000
C1889       C  0.00948220  0.53965005  0.55308900    -0.33000
C1890       C  0.02634884  0.51351110  0.54416936     0.36100
H1891       H  0.13348829  0.55497000  0.56430463     0.16400
O1892       O  0.10957216  0.60701832  0.58263820    -0.60500
H1893       H  0.97483913  0.53501092  0.54966090     0.16500
O1894       O  0.99771397  0.48244925  0.53183147    -0.60600
H1895       H  0.97929099  0.45088100  0.53746096     0.43400
H1896       H  0.13156205  0.63753404  0.57686032     0.43400
C1897       C  0.07312330  0.43754702  0.49507050    -0.05700
C1898       C  0.06875834  0.39348305  0.49034769    -0.33100
C1899       C  0.05400600  0.37480198  0.47418272     0.36200
C1900       C  0.04421543  0.40078038  0.46215689    -0.06000
C1901       C  0.04738098  0.44439828  0.46702237    -0.33000
C1902       C  0.06149817  0.46270817  0.48336572     0.36100
H1903       H  0.07708078  0.37333336  0.49924928     0.16400
O1904       O  0.05122700  0.33202947  0.47014495    -0.60500
H1905       H  0.03930425  0.46466397  0.45810397     0.16500
O1906       O  0.06521064  0.50578227  0.48757436    -0.60600
H1907       H  0.09773825  0.53052232  0.48382414     0.43400
H1908       H  0.01884295  0.30696006  0.47389917     0.43400
loop_ 
_geom_bond_atom_site_label_1 
_geom_bond_atom_site_label_2 
_geom_bond_distance 
_geom_bond_site_symmetry_2 
_ccdc_geom_bond_type 
C1            N2   1.364       .  A
C1            N6   1.368       .  A
C1         C1885   1.493       .  S
N2            C3   1.356       .  A
C3            N4   1.349       .  A
C3         C1897   1.475       .  S
N4            C5   1.351       .  A
C5            N6   1.365       .  A
C5         C1873   1.490       .  S
C7            N8   1.373       .  A
C7           N12   1.368       .  A
C7         C1861   1.501       .  S
N8            C9   1.367       .  A
C9           N10   1.349       .  A
C9         C1849   1.485       .  S
N10          C11   1.348       .  A
C11          N12   1.359       .  A
C11        C1837   1.479       .  S
O13         Cr31   2.005       .  S
O13          C21   1.262       .  A
O14         Cr31   1.970       .  S
O14          C15   1.263   1_655  A
C15        C1888   1.493       .  S
C15          O16   1.273       .  A
O16         Cr32   2.027       .  S
O17         Cr32   1.980       .  S
O17          C18   1.262       .  A
C18        C1801   1.482       .  S
C18          O19   1.267       .  A
O19         Cr33   1.998       .  S
O20         Cr33   1.991   1_655  S
O20          C21   1.257       .  A
C21        C1852   1.485       .  S
O22         Cr31   1.970       .  S
O22          C30   1.261       .  A
O23         Cr31   2.004       .  S
O23          C24   1.262       .  A
C24        C1825   1.485       .  S
C24          O25   1.259   1_655  A
O25         Cr32   1.989       .  S
O26         Cr32   1.996       .  S
O26          C27   1.266       .  A
C27        C1792   1.487       .  S
C27          O28   1.262       .  A
O28         Cr33   1.985       .  S
O29         Cr33   2.031   1_655  S
O29          C30   1.275       .  A
C30        C1813   1.497       .  S
Cr31         O34   1.776   1_655  S
Cr32         O34   1.768       .  S
Cr33         O34   1.769       .  S
C35          N36   1.367       .  A
C35          N40   1.369       .  A
C35        C1768   1.500       .  S
N36          C37   1.359       .  A
C37          N38   1.348       .  A
C37        C1780   1.480       .  S
N38          C39   1.351       .  A
C39          N40   1.365       .  A
C39        C1756   1.491       .  S
C41          N42   1.369       .  A
C41          N46   1.367       .  A
C41        C1744   1.499       .  S
N42          C43   1.361       .  A
C43          N44   1.347       .  A
C43        C1732   1.476       .  S
N44          C45   1.351       .  A
C45          N46   1.363       .  A
C45        C1720   1.489       .  S
O47         Cr65   1.979       .  S
O47          C55   1.262       .  A
O48         Cr65   1.991       .  S
O48          C49   1.260       .  A
C49        C1705   1.482       .  S
C49          O50   1.257       .  A
O50         Cr66   1.983       .  S
O51         Cr66   2.000   1_565  S
O51          C52   1.267       .  A
C52        C1669   1.476       .  S
C52          O53   1.260       .  A
O53         Cr67   1.973       .  S
O54         Cr67   2.027       .  S
O54          C55   1.273   1_565  A
C55        C1696   1.500   1_545  S
O56         Cr65   2.001       .  S
O56          C64   1.262       .  A
O57         Cr65   1.976       .  S
O57          C58   1.264       .  A
C58        C1765   1.499       .  S
C58          O59   1.274       .  A
O59         Cr66   2.032       .  S
O60         Cr66   1.977   1_565  S
O60          C61   1.261       .  A
C61        C1681   1.483       .  S
C61          O62   1.267       .  A
O62         Cr67   1.997       .  S
O63         Cr67   1.984   1_545  S
O63          C64   1.257       .  A
C64        C1729   1.484       .  S
Cr65         O68   1.772       .  S
Cr66         O68   1.767       .  S
Cr67         O68   1.767   1_565  S
O69         Cr87   2.002       .  S
O69          C77   1.261       .  A
O70         Cr87   1.966       .  S
O70          C71   1.261       .  A
C71        C1741   1.499       .  S
C71          O72   1.276       .  A
O72         Cr88   2.036       .  S
O73         Cr88   1.974       .  S
O73          C74   1.260       .  A
C74        C1633   1.479       .  S
C74          O75   1.268       .  A
O75         Cr89   2.010       .  S
O76         Cr89   1.983       .  S
O76          C77   1.256       .  A
C77        C1777   1.479       .  S
O78         Cr87   1.964       .  S
O78          C86   1.261       .  A
O79         Cr87   2.004       .  S
O79          C80   1.262       .  A
C80        C1657   1.490       .  S
C80          O81   1.257       .  A
O81         Cr88   1.989       .  S
O82         Cr88   2.005       .  S
O82          C83   1.268       .  A
C83        C1621   1.482       .  S
C83          O84   1.259       .  A
O84         Cr89   1.973       .  S
O85         Cr89   2.035       .  S
O85          C86   1.275       .  A
C86        C1645   1.496       .  S
Cr87         O90   1.774       .  S
Cr88         O90   1.768       .  S
Cr89         O90   1.769       .  S
C91          N92   1.368       .  A
C91          N96   1.369       .  A
C91        C1609   1.491       .  S
N92          C93   1.362       .  A
C93          N94   1.350       .  A
C93        C1600   1.483       .  S
N94          C95   1.349       .  A
C95          N96   1.362       .  A
C95        C1660   1.476       .  S
C97          N98   1.368       .  A
C97         N102   1.365       .  A
C97        C1648   1.498       .  S
N98          C99   1.366       .  A
C99         N100   1.351       .  A
C99        C1573   1.490       .  S
N100        C101   1.348       .  A
C101        N102   1.356       .  A
C101       C1585   1.478       .  S
O103       Cr121   2.020       .  S
O103        C111   1.270   1_455  A
O104       Cr121   1.973       .  S
O104        C105   1.255       .  A
C105       C1900   1.482       .  S
C105        O106   1.261       .  A
O106       Cr122   1.998   1_455  S
O107       Cr122   1.991       .  S
O107        C108   1.266       .  A
C108       C1561   1.482       .  S
C108        O109   1.263       .  A
O109       Cr123   1.987       .  S
O110       Cr123   1.979       .  S
O110        C111   1.261       .  A
C111       C1864   1.492       .  S
O112       Cr121   1.974       .  S
O112        C120   1.256       .  A
O113       Cr121   2.022       .  S
O113        C114   1.271       .  A
C114       C1612   1.494       .  S
C114        O115   1.262       .  A
O115       Cr122   1.978   1_455  S
O116       Cr122   1.986       .  S
O116        C117   1.262       .  A
C117       C1549   1.485       .  S
C117        O118   1.267       .  A
O118       Cr123   2.004       .  S
O119       Cr123   1.997       .  S
O119        C120   1.262   1_655  A
C120       C1588   1.479       .  S
Cr121       O124   1.774   1_455  S
Cr122       O124   1.769       .  S
Cr123       O124   1.774       .  S
C125        N126   1.369       .  A
C125        N130   1.369       .  A
C125       C1693   1.500       .  S
N126        C127   1.361       .  A
C127        N128   1.348       .  A
C127       C1537   1.477   1_554  S
N128        C129   1.350       .  A
C129        N130   1.362       .  A
C129       C1528   1.478       .  S
C131        N132   1.365       .  A
C131        N136   1.367       .  A
C131       C1513   1.496       .  S
N132        C133   1.357       .  A
C133        N134   1.348       .  A
C133       C1708   1.465       .  S
N134        C135   1.351       .  A
C135        N136   1.365       .  A
C135       C1501   1.490       .  S
O137       Cr155   1.999       .  S
O137        C145   1.262       .  A
O138       Cr155   1.969   1_545  S
O138        C139   1.261       .  A
C139       C1516   1.495       .  S
C139        O140   1.274       .  A
O140       Cr156   2.028       .  S
O141       Cr156   1.972       .  S
O141        C142   1.260       .  A
C142       C1468   1.476       .  S
C142        O143   1.267       .  A
O143       Cr157   2.003       .  S
O144       Cr157   1.988       .  S
O144        C145   1.257   1_545  A
C145       C1540   1.483       .  S
O146       Cr155   1.972       .  S
O146        C154   1.263       .  A
O147       Cr155   2.002       .  S
O147        C148   1.262   1_565  A
C148       C1489   1.476   1_545  S
C148        O149   1.256       .  A
O149       Cr156   1.984       .  S
O150       Cr156   1.997       .  S
O150        C151   1.266       .  A
C151       C1453   1.475       .  S
C151        O152   1.260       .  A
O152       Cr157   1.973       .  S
O153       Cr157   2.035   1_565  S
O153        C154   1.275       .  A
C154       C1480   1.499       .  S
Cr155       O158   1.771   1_565  S
Cr156       O158   1.768       .  S
Cr157       O158   1.766       .  S
C159        N160   1.369       .  A
C159        N164   1.367       .  A
C159       C1441   1.500       .  S
N160        C161   1.365       .  A
C161        N162   1.353       .  A
C161       C1429   1.493       .  S
N162        C163   1.348       .  A
C163        N164   1.359       .  A
C163       C1828   1.480       .  S
C165        N166   1.369       .  A
C165        N170   1.368       .  A
C165       C1816   1.498       .  S
N166        C167   1.360       .  A
C167        N168   1.346       .  A
C167       C1417   1.475       .  S
N168        C169   1.348       .  A
C169        N170   1.361       .  A
C169       C1405   1.475       .  S
C171        N172   1.368       .  A
C171        N176   1.370       .  A
C171       C1396   1.501       .  S
N172        C173   1.362       .  A
C173        N174   1.349       .  A
C173       C1384   1.486       .  S
N174        C175   1.348       .  A
C175        N176   1.361       .  A
C175       C1492   1.482       .  S
C177        N178   1.370       .  A
C177        N182   1.365       .  A
C177       C1477   1.503       .  S
N178        C179   1.367       .  A
C179        N180   1.352       .  A
C179       C1357   1.491       .  S
N180        C181   1.348       .  A
C181        N182   1.357       .  A
C181       C1369   1.476       .  S
O183       Cr201   1.974       .  S
O183        C191   1.264       .  A
O184       Cr201   1.996       .  S
O184        C185   1.260       .  A
C185       C1420   1.479       .  S
C185        O186   1.258       .  A
O186       Cr202   1.990       .  S
O187       Cr202   2.003       .  S
O187        C188   1.268       .  A
C188       C1336   1.490       .  S
C188        O189   1.261       .  A
O189       Cr203   1.979       .  S
O190       Cr203   2.033       .  S
O190        C191   1.275       .  A
C191       C1444   1.499       .  S
O192       Cr201   1.998       .  S
O192        C200   1.260       .  A
O193       Cr201   1.970       .  S
O193        C194   1.262       .  A
C194       C1393   1.499       .  S
C194        O195   1.276       .  A
O195       Cr202   2.034       .  S
O196       Cr202   1.972       .  S
O196        C197   1.259       .  A
C197       C1345   1.475       .  S
C197        O198   1.268       .  A
O198       Cr203   2.002       .  S
O199       Cr203   1.987       .  S
O199        C200   1.257       .  A
C200       C1372   1.485       .  S
Cr201       O204   1.774       .  S
Cr202       O204   1.769       .  S
Cr203       O204   1.766       .  S
C205        N206   1.369       .  A
C205        N210   1.371       .  A
C205       C1309   1.504       .  S
N206        C207   1.360       .  A
C207        N208   1.345       .  A
C207       C1321   1.484       .  S
N208        C209   1.349       .  A
C209        N210   1.366       .  A
C209       C1348   1.493       .  S
C211        N212   1.365       .  A
C211        N216   1.370       .  A
C211       C1297   1.491       .  S
N212        C213   1.359   1_455  A
C213        N214   1.349       .  A
C213       C1456   1.484       .  S
N214        C215   1.348   1_655  A
C215        N216   1.365       .  A
C215       C1288   1.473       .  S
O217       Cr235   1.977       .  S
O217        C225   1.262       .  A
O218       Cr235   2.007   1_455  S
O218        C219   1.264       .  A
C219       C1273   1.487       .  S
C219        O220   1.257       .  A
O220       Cr236   1.978       .  S
O221       Cr236   2.008   1_655  S
O221        C222   1.268       .  A
C222       C1432   1.476       .  S
C222        O223   1.260       .  A
O223       Cr237   1.974       .  S
O224       Cr237   2.030       .  S
O224        C225   1.274       .  A
C225       C1261   1.499       .  S
O226       Cr235   2.004       .  S
O226        C234   1.264       .  A
O227       Cr235   1.977   1_455  S
O227        C228   1.262       .  A
C228       C1312   1.502       .  S
C228        O229   1.274       .  A
O229       Cr236   2.033       .  S
O230       Cr236   1.970       .  S
O230        C231   1.259       .  A
C231       C1249   1.483       .  S
C231        O232   1.267   1_455  A
O232       Cr237   2.003       .  S
O233       Cr237   1.985       .  S
O233        C234   1.258       .  A
C234       C1285   1.491       .  S
Cr235       O238   1.774       .  S
Cr236       O238   1.766   1_455  S
Cr237       O238   1.772       .  S
O239       Cr257   1.974       .  S
O239        C247   1.254       .  A
O240       Cr257   2.024       .  S
O240        C241   1.271       .  A
C241       C1300   1.498       .  S
C241        O242   1.261       .  A
O242       Cr258   1.973       .  S
O243       Cr258   1.987       .  S
O243        C244   1.263       .  A
C244       C1216   1.481       .  S
C244        O245   1.267       .  A
O245       Cr259   1.990       .  S
O246       Cr259   2.005       .  S
O246        C247   1.263       .  A
C247       C1324   1.480       .  S
O248       Cr257   2.028       .  S
O248        C256   1.273       .  A
O249       Cr257   1.970       .  S
O249        C250   1.255       .  A
C250       C1240   1.484       .  S
C250        O251   1.264       .  A
O251       Cr258   2.003       .  S
O252       Cr258   1.993       .  S
O252        C253   1.266       .  A
C253       C1504   1.485       .  S
C253        O254   1.263       .  A
O254       Cr259   1.989       .  S
O255       Cr259   1.974       .  S
O255        C256   1.261       .  A
C256       C1228   1.497       .  S
Cr257       O260   1.774       .  S
Cr258       O260   1.772       .  S
Cr259       O260   1.771       .  S
C261        N262   1.364       .  A
C261        N266   1.368       .  A
C261       C1204   1.491       .  S
N262        C263   1.355       .  A
C263        N264   1.347       .  A
C263       C1237   1.473   1_554  S
N264        C265   1.351       .  A
C265        N266   1.366       .  A
C265       C1189   1.492       .  S
C267        N268   1.369       .  A
C267        N272   1.368       .  A
C267       C1225   1.495       .  S
N268        C269   1.363       .  A
C269        N270   1.350       .  A
C269       C1165   1.486       .  S
N270        C271   1.348       .  A
C271        N272   1.361       .  A
C271       C1177   1.470       .  S
O273       Cr291   1.961       .  S
O273        C281   1.260       .  A
O274       Cr291   2.004       .  S
O274        C275   1.264       .  A
C275       C1180   1.490       .  S
C275        O276   1.256       .  A
O276       Cr292   1.981       .  S
O277       Cr292   1.999       .  S
O277        C278   1.267       .  A
C278       C1525   1.486       .  S
C278        O279   1.260       .  A
O279       Cr293   1.979       .  S
O280       Cr293   2.030       .  S
O280        C281   1.274       .  A
C281       C1201   1.490       .  S
O282       Cr291   2.004       .  S
O282        C290   1.263       .  A
O283       Cr291   1.968       .  S
O283        C284   1.261       .  A
C284       C1141   1.495       .  S
C284        O285   1.273       .  A
O285       Cr292   2.029       .  S
O286       Cr292   1.968       .  S
O286        C287   1.259       .  A
C287       C1129   1.470       .  S
C287        O288   1.268       .  A
O288       Cr293   2.011       .  S
O289       Cr293   1.987       .  S
O289        C290   1.259       .  A
C290       C1156   1.486       .  S
Cr291       O294   1.772       .  S
Cr292       O294   1.769       .  S
Cr293       O294   1.769       .  S
C295        N296   1.370       .  A
C295        N300   1.372       .  A
C295       C1264   1.498       .  S
N296        C297   1.362       .  A
C297        N298   1.346       .  A
C297       C1108   1.488       .  S
N298        C299   1.345       .  A
C299        N300   1.364       .  A
C299       C1117   1.484       .  S
C301        N302   1.369       .  A
C301        N306   1.367       .  A
C301       C1096   1.501       .  S
N302        C303   1.365   1_655  A
C303        N304   1.352       .  A
C303       C1081   1.491       .  S
N304        C305   1.348   1_455  A
C305        N306   1.360       .  A
C305       C1276   1.474       .  S
C307        N308   1.367       .  A
C307        N312   1.371       .  A
C307       C1057   1.503       .  S
N308        C309   1.358       .  A
C309        N310   1.347       .  A
C309       C1069   1.477       .  S
N310        C311   1.351       .  A
C311        N312   1.366       .  A
C311       C1804   1.490       .  S
C313        N314   1.366       .  A
C313        N318   1.369       .  A
C313       C1045   1.503       .  S
N314        C315   1.362       .  A
C315        N316   1.348       .  A
C315       C1564   1.487       .  S
N316        C317   1.348       .  A
C317        N318   1.362       .  A
C317       C1036   1.479       .  S
O319       Cr337   1.997       .  S
O319        C327   1.261       .  A
O320       Cr337   1.978       .  S
O320        C321   1.263       .  A
C321       C1060   1.500   1_545  S
C321        O322   1.273   1_545  A
O322       Cr338   2.029       .  S
O323       Cr338   1.977       .  S
O323        C324   1.261       .  A
C324       C1021   1.483       .  S
C324        O325   1.267       .  A
O325       Cr339   1.998   1_565  S
O326       Cr339   1.985       .  S
O326        C327   1.256       .  A
C327       C1033   1.478       .  S
O328       Cr337   1.978       .  S
O328        C336   1.263       .  A
O329       Cr337   1.999       .  S
O329        C330   1.262       .  A
C330       C1120   1.479       .  S
C330        O331   1.258       .  A
O331       Cr338   1.991   1_545  S
O332       Cr338   1.997       .  S
O332        C333   1.266       .  A
C333       C1408   1.483       .  S
C333        O334   1.261       .  A
O334       Cr339   1.977   1_565  S
O335       Cr339   2.033       .  S
O335        C336   1.275       .  A
C336       C1093   1.501       .  S
Cr337       O340   1.769       .  S
Cr338       O340   1.766   1_565  S
Cr339       O340   1.765       .  S
O341       Cr359   1.978       .  S
O341        C349   1.264       .  A
O342       Cr359   1.998       .  S
O342        C343   1.260   1_565  A
C343       C1012   1.489   1_545  S
C343        O344   1.258       .  A
O344       Cr360   1.994       .  S
O345       Cr360   2.000       .  S
O345        C346   1.268       .  A
C346       C1597   1.486       .  S
C346        O347   1.262       .  A
O347       Cr361   1.980       .  S
O348       Cr361   2.024   1_565  S
O348        C349   1.273       .  A
C349       C1000   1.497       .  S
O350       Cr359   1.999       .  S
O350        C358   1.261       .  A
O351       Cr359   1.973   1_545  S
O351        C352   1.263       .  A
C352       C1048   1.497       .  S
C352        O353   1.275       .  A
O353       Cr360   2.033       .  S
O354       Cr360   1.982       .  S
O354        C355   1.262       .  A
C355        C985   1.486       .  S
C355        O356   1.264       .  A
O356       Cr361   1.992       .  S
O357       Cr361   1.992       .  S
O357        C358   1.259   1_545  A
C358       C1072   1.486       .  S
Cr359       O362   1.774   1_565  S
Cr360       O362   1.767       .  S
Cr361       O362   1.766       .  S
C363        N364   1.370       .  A
C363        N368   1.367       .  A
C363        C997   1.499       .  S
N364        C365   1.363   1_455  A
C365        N366   1.350       .  A
C365        C964   1.478       .  S
N366        C367   1.347   1_655  A
C367        N368   1.359       .  A
C367        C973   1.477       .  S
C369        N370   1.367       .  A
C369        N374   1.370       .  A
C369        C949   1.499       .  S
N370        C371   1.361       .  A
C371        N372   1.350       .  A
C371        C940   1.478       .  S
N372        C373   1.349       .  A
C373        N374   1.363       .  A
C373       C1009   1.478       .  S
C375        N376   1.367       .  A
C375        N380   1.368       .  A
C375       C1144   1.496       .  S
N376        C377   1.359       .  A
C377        N378   1.348   1_655  A
C377        C925   1.475       .  S
N378        C379   1.350       .  A
C379        N380   1.362   1_455  A
C379       C1684   1.476       .  S
C381        N382   1.367       .  A
C381        N386   1.364       .  A
C381        C916   1.500       .  S
N382        C383   1.366       .  A
C383        N384   1.356       .  A
C383       C1636   1.495       .  S
N384        C385   1.352       .  A
C385        N386   1.358       .  A
C385       C1153   1.478       .  S
O387       Cr405   2.001   1_455  S
O387        C395   1.260       .  A
O388       Cr405   1.975       .  S
O388        C389   1.264       .  A
C389        C913   1.500       .  S
C389        O390   1.276       .  A
O390       Cr406   2.033       .  S
O391       Cr406   1.965       .  S
O391        C392   1.258       .  A
C392        C904   1.478       .  S
C392        O393   1.269       .  A
O393       Cr407   2.008   1_655  S
O394       Cr407   1.985       .  S
O394        C395   1.256       .  A
C395        C928   1.483       .  S
O396       Cr405   1.972   1_455  S
O396        C404   1.263       .  A
O397       Cr405   2.001       .  S
O397        C398   1.261       .  A
C398        C976   1.480       .  S
C398        O399   1.256       .  A
O399       Cr406   1.984       .  S
O400       Cr406   2.006   1_455  S
O400        C401   1.267       .  A
C401       C1576   1.471       .  S
C401        O402   1.258       .  A
O402       Cr407   1.967       .  S
O403       Cr407   2.036       .  S
O403        C404   1.278       .  A
C404        C952   1.500       .  S
Cr405       O408   1.777       .  S
Cr406       O408   1.767       .  S
Cr407       O408   1.767   1_455  S
C409        N410   1.365       .  A
C409        N414   1.366       .  A
C409        C877   1.492       .  S
N410        C411   1.359       .  A
C411        N412   1.348       .  A
C411        C892   1.470       .  S
N412        C413   1.350       .  A
C413        N414   1.361       .  A
C413       C1252   1.471       .  S
C415        N416   1.367   1_565  A
C415        N420   1.366       .  A
C415        C865   1.492       .  S
N416        C417   1.363       .  A
C417        N418   1.349       .  A
C417       C1213   1.486       .  S
N418        C419   1.347       .  A
C419        N420   1.359   1_545  A
C419        C856   1.468       .  S
O421       Cr439   1.966   1_565  S
O421        C429   1.262       .  A
O422       Cr439   1.995       .  S
O422        C423   1.261       .  A
C423        C853   1.478       .  S
C423        O424   1.256       .  A
O424       Cr440   1.980       .  S
O425       Cr440   2.002       .  S
O425        C426   1.267   1_545  A
C426       C1381   1.478       .  S
C426        O427   1.260       .  A
O427       Cr441   1.973       .  S
O428       Cr441   2.032       .  S
O428        C429   1.275       .  A
C429        C880   1.495       .  S
O430       Cr439   1.997   1_565  S
O430        C438   1.260       .  A
O431       Cr439   1.969       .  S
O431        C432   1.262       .  A
C432        C832   1.495       .  S
C432        O433   1.275       .  A
O433       Cr440   2.030       .  S
O434       Cr440   1.965       .  S
O434        C435   1.258       .  A
C435       C1105   1.472       .  S
C435        O436   1.268       .  A
O436       Cr441   2.004   1_545  S
O437       Cr441   1.986   1_545  S
O437        C438   1.257   1_545  A
C438        C841   1.481   1_565  S
Cr439       O442   1.772       .  S
Cr440       O442   1.766       .  S
Cr441       O442   1.765   1_565  S
C443        N444   1.363       .  A
C443        N448   1.366   1_565  A
C443        C808   1.500       .  S
N444        C445   1.357   1_565  A
C445        N446   1.351       .  A
C445        C817   1.467       .  S
N446        C447   1.352       .  A
C447        N448   1.365       .  A
C447       C1552   1.485       .  S
C449        N450   1.370       .  A
C449        N454   1.371       .  A
C449        C793   1.503       .  S
N450        C451   1.365       .  A
C451        N452   1.350       .  A
C451       C1624   1.487       .  S
N452        C453   1.347       .  A
C453        N454   1.361       .  A
C453        C784   1.478       .  S
C455        N456   1.370       .  A
C455        N460   1.369       .  A
C455        C757   1.496       .  S
N456        C457   1.364       .  A
C457        N458   1.348       .  A
C457       C1672   1.486       .  S
N458        C459   1.345       .  A
C459        N460   1.359       .  A
C459        C769   1.477   1_554  S
C461        N462   1.366       .  A
C461        N466   1.366       .  A
C461        C745   1.494       .  S
N462        C463   1.358       .  A
C463        N464   1.348       .  A
C463        C733   1.473       .  S
N464        C465   1.352       .  A
C465        N466   1.363       .  A
C465       C1465   1.486       .  S
C467        N468   1.368       .  A
C467        N472   1.370       .  A
C467        C709   1.501       .  S
N468        C469   1.364   1_545  A
C469        N470   1.350       .  A
C469       C1132   1.491       .  S
N470        C471   1.348   1_565  A
C471        N472   1.362       .  A
C471        C721   1.480       .  S
C473        N474   1.371       .  A
C473        N478   1.367       .  A
C473        C700   1.494       .  S
N474        C475   1.366       .  A
C475        N476   1.348       .  A
C475        C901   1.489       .  S
N476        C477   1.345       .  A
C477        N478   1.357       .  A
C477        C685   1.471       .  S
O479       Cr497   1.971       .  S
O479        C487   1.262       .  A
O480       Cr497   1.994       .  S
O480        C481   1.260       .  A
C481        C688   1.482       .  S
C481        O482   1.257   1_655  A
O482       Cr498   1.988       .  S
O483       Cr498   2.002       .  S
O483        C484   1.267       .  A
C484       C1753   1.478       .  S
C484        O485   1.259       .  A
O485       Cr499   1.973       .  S
O486       Cr499   2.038   1_655  S
O486        C487   1.277       .  A
C487        C712   1.500       .  S
O488       Cr497   1.997       .  S
O488        C496   1.260       .  A
O489       Cr497   1.971       .  S
O489        C490   1.263   1_655  A
C490        C760   1.497       .  S
C490        O491   1.275       .  A
O491       Cr498   2.034       .  S
O492       Cr498   1.970       .  S
O492        C493   1.259       .  A
C493       C1192   1.474       .  S
C493        O494   1.268       .  A
O494       Cr499   2.005       .  S
O495       Cr499   1.985       .  S
O495        C496   1.256   1_455  A
C496        C736   1.484       .  S
Cr497       O500   1.775   1_655  S
Cr498       O500   1.770       .  S
Cr499       O500   1.768       .  S
O501       Cr519   1.993       .  S
O501        C509   1.260       .  A
O502       Cr519   1.969   1_565  S
O502        C503   1.262       .  A
C503        C796   1.502       .  S
C503        O504   1.277       .  A
O504       Cr520   2.041       .  S
O505       Cr520   1.983       .  S
O505        C506   1.260       .  A
C506        C937   1.487       .  S
C506        O507   1.265   1_565  A
O507       Cr521   1.993       .  S
O508       Cr521   1.983       .  S
O508        C509   1.257       .  A
C509        C820   1.479       .  S
O510       Cr519   1.977       .  S
O510        C518   1.264       .  A
O511       Cr519   1.994   1_565  S
O511        C512   1.259   1_565  A
C512        C724   1.486       .  S
C512        O513   1.257       .  A
O513       Cr520   1.995   1_545  S
O514       Cr520   2.007   1_545  S
O514        C515   1.269       .  A
C515       C1717   1.468       .  S
C515        O516   1.260       .  A
O516       Cr521   1.967       .  S
O517       Cr521   2.029       .  S
O517        C518   1.274       .  A
C518        C697   1.496       .  S
Cr519       O522   1.774       .  S
Cr520       O522   1.769   1_565  S
Cr521       O522   1.768       .  S
O523       Cr541   1.995       .  S
O523        C531   1.260       .  A
O524       Cr541   1.964       .  S
O524        C525   1.261   1_455  A
C525        C748   1.494       .  S
C525        O526   1.276       .  A
O526       Cr542   2.034       .  S
O527       Cr542   1.978       .  S
O527        C528   1.260       .  A
C528       C1168   1.486       .  S
C528        O529   1.267       .  A
O529       Cr543   2.001       .  S
O530       Cr543   1.990   1_455  S
O530        C531   1.257       .  A
C531        C772   1.479       .  S
O532       Cr541   1.968       .  S
O532        C540   1.261       .  A
O533       Cr541   1.994       .  S
O533        C534   1.259       .  A
C534        C889   1.477       .  S
C534        O535   1.256   1_455  A
O535       Cr542   1.984       .  S
O536       Cr542   2.008       .  S
O536        C537   1.270       .  A
C537       C1360   1.481       .  S
C537        O538   1.260       .  A
O538       Cr543   1.973       .  S
O539       Cr543   2.030   1_455  S
O539        C540   1.275       .  A
C540        C868   1.494       .  S
Cr541       O544   1.774   1_455  S
Cr542       O544   1.764       .  S
Cr543       O544   1.767       .  S
C545        N546   1.367       .  A
C545        N550   1.368       .  A
C545        C661   1.498       .  S
N546        C547   1.359       .  A
C547        N548   1.347       .  A
C547        C673   1.471       .  S
N548        C549   1.351       .  A
C549        N550   1.362       .  A
C549        C988   1.476       .  S
C551        N552   1.371       .  A
C551        N556   1.365       .  A
C551        C649   1.500       .  S
N552        C553   1.364       .  A
C553        N554   1.348       .  A
C553        C637   1.480       .  S
N554        C555   1.348       .  A
C555        N556   1.359       .  A
C555       C1024   1.469       .  S
O557       Cr575   1.969       .  S
O557        C565   1.263       .  A
O558       Cr575   1.999       .  S
O558        C559   1.261       .  A
C559        C640   1.484       .  S
C559        O560   1.258       .  A
O560       Cr576   1.993       .  S
O561       Cr576   1.999       .  S
O561        C562   1.267       .  A
C562       C1840   1.487       .  S
C562        O563   1.261       .  A
O563       Cr577   1.980       .  S
O564       Cr577   2.033       .  S
O564        C565   1.276       .  A
C565        C664   1.497       .  S
O566       Cr575   1.997       .  S
O566        C574   1.260       .  A
O567       Cr575   1.966       .  S
O567        C568   1.262       .  A
C568        C805   1.494       .  S
C568        O569   1.274       .  A
O569       Cr576   2.029       .  S
O570       Cr576   1.978       .  S
O570        C571   1.260       .  A
C571        C961   1.487       .  S
C571        O572   1.268       .  A
O572       Cr577   2.001       .  S
O573       Cr577   1.996       .  S
O573        C574   1.258       .  A
C574        C781   1.491       .  S
Cr575       O578   1.773       .  S
Cr576       O578   1.767       .  S
Cr577       O578   1.766       .  S
C579        N580   1.366       .  A
C579        N584   1.370       .  A
C579        C829   1.500       .  S
N580        C581   1.357       .  A
C581        N582   1.347       .  A
C581        C625   1.469       .  S
N582        C583   1.350       .  A
C583        N584   1.364       .  A
C583       C1333   1.480       .  S
C585        N586   1.371       .  A
C585        N590   1.368       .  A
C585        C613   1.502       .  S
N586        C587   1.365   1_545  A
C587        N588   1.350       .  A
C587       C1789   1.485       .  S
N588        C589   1.347   1_565  A
C589        N590   1.359       .  A
C589        C844   1.477       .  S
O591       Cr609   2.000       .  S
O591        C599   1.261       .  A
O592       Cr609   1.970       .  S
O592        C593   1.262       .  A
C593        C616   1.499       .  S
C593        O594   1.275       .  A
O594       Cr610   2.036       .  S
O595       Cr610   1.971       .  S
O595        C596   1.260       .  A
C596       C1084   1.476       .  S
C596        O597   1.268       .  A
O597       Cr611   2.008       .  S
O598       Cr611   1.978       .  S
O598        C599   1.256       .  A
C599        C628   1.481       .  S
O600       Cr609   1.968       .  S
O600        C608   1.260       .  A
O601       Cr609   1.998       .  S
O601        C602   1.261       .  A
C602        C676   1.484       .  S
C602        O603   1.257       .  A
O603       Cr610   1.983       .  S
O604       Cr610   2.006       .  S
O604        C605   1.268       .  A
C605       C1876   1.477       .  S
C605        O606   1.258       .  A
O606       Cr611   1.968       .  S
O607       Cr611   2.035       .  S
O607        C608   1.276       .  A
C608        C652   1.499       .  S
Cr609       O612   1.773       .  S
Cr610       O612   1.767       .  S
Cr611       O612   1.768       .  S
C613        C614   1.408       .  A
C613        C618   1.416       .  A
C614        C615   1.401       .  A
C614        H619   1.083       .  S
C615        C616   1.415       .  A
C615        O620   1.372       .  S
C616        C617   1.408       .  A
C617        C618   1.409       .  A
C617        H621   1.083       .  S
C618        O622   1.371       .  S
O620        H624   0.991       .  S
O622        H623   0.992       .  S
C625        C626   1.402       .  A
C625        C630   1.404       .  A
C626        C627   1.397       .  A
C626        H631   1.084       .  S
C627        C628   1.410       .  A
C627        O632   1.371       .  S
C628        C629   1.409       .  A
C629        C630   1.402       .  A
C629        H633   1.084       .  S
C630        O634   1.371       .  S
O632        H636   0.992       .  S
O634        H635   0.991       .  S
C637        C638   1.403       .  A
C637        C642   1.412       .  A
C638        C639   1.407       .  A
C638        H643   1.083       .  S
C639        C640   1.414       .  A
C639        O644   1.371       .  S
C640        C641   1.402       .  A
C641        C642   1.397       .  A
C641        H645   1.084       .  S
C642        O646   1.372       .  S
O644        H648   0.992       .  S
O646        H647   0.992       .  S
C649        C650   1.405       .  A
C649        C654   1.417       .  A
C650        C651   1.403       .  A
C650        H655   1.083       .  S
C651        C652   1.417       .  A
C651        O656   1.372       .  S
C652        C653   1.406       .  A
C653        C654   1.408       .  A
C653        H657   1.083       .  S
C654        O658   1.371       .  S
O656        H660   0.993       .  S
O658        H659   0.992       .  S
C661        C662   1.409       .  A
C661        C666   1.413       .  A
C662        C663   1.407       .  A
C662        H667   1.083       .  S
C663        C664   1.413       .  A
C663        O668   1.371       .  S
C664        C665   1.408       .  A
C665        C666   1.401       .  A
C665        H669   1.083       .  S
C666        O670   1.372       .  S
O668        H672   0.991       .  S
O670        H671   0.992       .  S
C673        C674   1.402       .  A
C673        C678   1.405       .  A
C674        C675   1.397       .  A
C674        H679   1.084       .  S
C675        C676   1.411       .  A
C675        O680   1.372       .  S
C676        C677   1.409       .  A
C677        C678   1.403       .  A
C677        H681   1.083       .  S
C678        O682   1.371       .  S
O680        H684   0.991       .  S
O682        H683   0.992       .  S
C685        C686   1.401       .  A
C685        C690   1.408       .  A
C686        C687   1.404       .  A
C686        H691   1.084       .  S
C687        C688   1.414       .  A
C687        O692   1.371       .  S
C688        C689   1.403       .  A
C689        C690   1.394       .  A
C689        H693   1.084       .  S
C690        O694   1.372       .  S
O692        H696   0.992   1_655  S
O694        H695   0.991       .  S
C697        C698   1.409       .  A
C697        C702   1.413       .  A
C698        C699   1.408       .  A
C698        H703   1.083       .  S
C699        C700   1.412       .  A
C699        O704   1.371       .  S
C700        C701   1.406       .  A
C701        C702   1.402       .  A
C701        H705   1.084       .  S
C702        O706   1.372       .  S
O704        H708   0.991       .  S
O706        H707   0.992       .  S
C709        C710   1.406       .  A
C709        C714   1.416       .  A
C710        C711   1.404       .  A
C710        H715   1.083       .  S
C711        C712   1.416       .  A
C711        O716   1.372       .  S
C712        C713   1.407       .  A
C713        C714   1.408       .  A
C713        H717   1.083       .  S
C714        O718   1.371       .  S
O716        H720   0.989       .  S
O718        H719   0.991       .  S
C721        C722   1.403       .  A
C721        C726   1.411       .  A
C722        C723   1.408       .  A
C722        H727   1.083       .  S
C723        C724   1.415       .  A
C723        O728   1.371       .  S
C724        C725   1.403   1_545  A
C725        C726   1.395   1_565  A
C725        H729   1.084       .  S
C726        O730   1.372   1_545  S
O728        H732   0.991       .  S
O730        H731   0.992   1_565  S
C733        C734   1.401       .  A
C733        C738   1.408   1_556  A
C734        C735   1.404   1_556  A
C734        H739   1.084       .  S
C735        C736   1.415       .  A
C735        O740   1.372   1_655  S
C736        C737   1.404       .  A
C737        C738   1.396       .  A
C737        H741   1.083       .  S
C738        O742   1.372       .  S
O740        H744   0.991       .  S
O742        H743   0.991       .  S
C745        C746   1.405       .  A
C745        C750   1.415       .  A
C746        C747   1.399       .  A
C746        H751   1.083       .  S
C747        C748   1.415       .  A
C747        O752   1.372   1_655  S
C748        C749   1.407       .  A
C749        C750   1.406       .  A
C749        H753   1.083       .  S
C750        O754   1.371       .  S
O752        H756   0.992       .  S
O754        H755   0.992       .  S
C757        C758   1.409       .  A
C757        C762   1.412       .  A
C758        C759   1.408       .  A
C758        H763   1.083       .  S
C759        C760   1.414       .  A
C759        O764   1.371       .  S
C760        C761   1.407       .  A
C761        C762   1.402       .  A
C761        H765   1.083   1_455  S
C762        O766   1.372   1_455  S
O764        H768   0.991       .  S
O766        H767   0.992   1_655  S
C769        C770   1.403       .  A
C769        C774   1.411       .  A
C770        C771   1.407       .  A
C770        H775   1.083   1_556  S
C771        C772   1.414       .  A
C771        O776   1.372   1_455  S
C772        C773   1.400       .  A
C773        C774   1.394       .  A
C773        H777   1.084       .  S
C774        O778   1.373       .  S
O776        H780   0.992       .  S
O778        H779   0.992       .  S
C781        C782   1.411       .  A
C781        C786   1.412       .  A
C782        C783   1.408       .  A
C782        H787   1.083       .  S
C783        C784   1.406       .  A
C783        O788   1.371       .  S
C784        C785   1.403       .  A
C785        C786   1.398       .  A
C785        H789   1.084       .  S
C786        O790   1.372       .  S
O788        H792   0.991       .  S
O790        H791   0.992       .  S
C793        C794   1.412       .  A
C793        C798   1.413       .  A
C794        C795   1.411       .  A
C794        H799   1.083       .  S
C795        C796   1.413       .  A
C795        O800   1.371       .  S
C796        C797   1.410       .  A
C797        C798   1.402       .  A
C797        H801   1.083       .  S
C798        O802   1.371       .  S
O800        H804   0.992       .  S
O802        H803   0.992       .  S
C805        C806   1.407       .  A
C805        C810   1.411       .  A
C806        C807   1.398       .  A
C806        H811   1.084       .  S
C807        C808   1.415       .  A
C807        O812   1.372       .  S
C808        C809   1.411       .  A
C809        C810   1.409       .  A
C809        H813   1.083       .  S
C810        O814   1.371       .  S
O812        H816   0.992       .  S
O814        H815   0.992       .  S
C817        C818   1.401   1_545  A
C817        C822   1.405       .  A
C818        C819   1.402       .  A
C818        H823   1.084       .  S
C819        C820   1.414   1_565  A
C819        O824   1.372       .  S
C820        C821   1.404       .  A
C821        C822   1.395       .  A
C821        H825   1.083       .  S
C822        O826   1.372       .  S
O824        H828   0.992   1_565  S
O826        H827   0.991       .  S
C829        C830   1.408       .  A
C829        C834   1.415       .  A
C830        C831   1.400       .  A
C830        H835   1.083       .  S
C831        C832   1.414       .  A
C831        O836   1.372       .  S
C832        C833   1.407       .  A
C833        C834   1.408       .  A
C833        H837   1.083       .  S
C834        O838   1.371       .  S
O836        H840   0.992       .  S
O838        H839   0.992       .  S
C841        C842   1.408       .  A
C841        C846   1.409   1_545  A
C842        C843   1.404       .  A
C842        H847   1.084       .  S
C843        C844   1.406       .  A
C843        O848   1.371       .  S
C844        C845   1.405       .  A
C845        C846   1.397   1_545  A
C845        H849   1.084   1_545  S
C846        O850   1.372       .  S
O848        H852   0.992       .  S
O850        H851   0.992       .  S
C853        C854   1.402       .  A
C853        C858   1.414       .  A
C854        C855   1.393       .  A
C854        H859   1.084       .  S
C855        C856   1.408       .  A
C855        O860   1.372       .  S
C856        C857   1.401   1_545  A
C857        C858   1.403   1_565  A
C857        H861   1.084       .  S
C858        O862   1.372   1_545  S
O860        H864   0.992       .  S
O862        H863   0.992   1_565  S
C865        C866   1.404       .  A
C865        C870   1.414       .  A
C866        C867   1.401       .  A
C866        H871   1.083       .  S
C867        C868   1.415       .  A
C867        O872   1.372       .  S
C868        C869   1.407       .  A
C869        C870   1.406       .  A
C869        H873   1.083       .  S
C870        O874   1.371       .  S
O872        H876   0.991       .  S
O874        H875   0.992       .  S
C877        C878   1.408       .  A
C877        C882   1.412       .  A
C878        C879   1.406       .  A
C878        H883   1.083       .  S
C879        C880   1.412       .  A
C879        O884   1.371       .  S
C880        C881   1.409       .  A
C881        C882   1.401       .  A
C881        H885   1.083       .  S
C882        O886   1.372       .  S
O884        H888   0.992       .  S
O886        H887   0.992       .  S
C889        C890   1.403       .  A
C889        C894   1.412       .  A
C890        C891   1.396       .  A
C890        H895   1.084       .  S
C891        C892   1.409       .  A
C891        O896   1.372       .  S
C892        C893   1.401       .  A
C893        C894   1.401       .  A
C893        H897   1.084       .  S
C894        O898   1.372       .  S
O896        H900   0.992       .  S
O898        H899   0.991   1_455  S
C901        C902   1.404       .  A
C901        C906   1.421       .  A
C902        C903   1.405       .  A
C902        H907   1.083       .  S
C903        C904   1.414       .  A
C903        O908   1.372       .  S
C904        C905   1.396       .  A
C905        C906   1.394       .  A
C905        H909   1.084       .  S
C906        O910   1.372       .  S
O908        H912   0.992       .  S
O910        H911   0.992       .  S
C913        C914   1.408       .  A
C913        C918   1.414       .  A
C914        C915   1.403       .  A
C914        H919   1.083       .  S
C915        C916   1.414       .  A
C915        O920   1.372       .  S
C916        C917   1.409       .  A
C917        C918   1.409       .  A
C917        H921   1.083       .  S
C918        O922   1.371       .  S
O920        H924   0.992       .  S
O922        H923   0.992       .  S
C925        C926   1.401       .  A
C925        C930   1.410   1_655  A
C926        C927   1.404       .  A
C926        H931   1.084       .  S
C927        C928   1.414   1_655  A
C927        O932   1.372       .  S
C928        C929   1.403       .  A
C929        C930   1.397       .  A
C929        H933   1.084       .  S
C930        O934   1.372       .  S
O932        H936   0.992       .  S
O934        H935   0.991       .  S
C937        C938   1.405       .  A
C937        C942   1.416       .  A
C938        C939   1.391       .  A
C938        H943   1.083   1_565  S
C939        C940   1.409       .  A
C939        O944   1.373   1_565  S
C940        C941   1.404       .  A
C941        C942   1.408       .  A
C941        H945   1.083       .  S
C942        O946   1.371       .  S
O944        H948   0.992       .  S
O946        H947   0.991       .  S
C949        C950   1.405       .  A
C949        C954   1.416       .  A
C950        C951   1.404       .  A
C950        H955   1.083       .  S
C951        C952   1.417       .  A
C951        O956   1.372       .  S
C952        C953   1.407       .  A
C953        C954   1.407       .  A
C953        H957   1.083       .  S
C954        O958   1.371       .  S
O956        H960   0.992       .  S
O958        H959   0.992       .  S
C961        C962   1.403       .  A
C961        C966   1.417       .  A
C962        C963   1.390       .  A
C962        H967   1.083       .  S
C963        C964   1.410       .  A
C963        O968   1.373       .  S
C964        C965   1.403       .  A
C965        C966   1.409       .  A
C965        H969   1.083       .  S
C966        O970   1.371       .  S
O968        H972   0.992       .  S
O970        H971   0.992       .  S
C973        C974   1.402       .  A
C973        C978   1.411   1_455  A
C974        C975   1.404       .  A
C974        H979   1.084       .  S
C975        C976   1.414   1_455  A
C975        O980   1.372       .  S
C976        C977   1.402       .  A
C977        C978   1.397       .  A
C977        H981   1.084       .  S
C978        O982   1.372       .  S
O980        H984   0.992       .  S
O982        H983   0.991       .  S
C985        C986   1.411       .  A
C985        C990   1.412       .  A
C986        C987   1.407       .  A
C986        H991   1.083       .  S
C987        C988   1.406       .  A
C987        O992   1.371       .  S
C988        C989   1.402       .  A
C989        C990   1.391       .  A
C989        H993   1.084       .  S
C990        O994   1.372       .  S
O992        H996   0.991       .  S
O994        H995   0.992       .  S
C997        C998   1.408       .  A
C997       C1002   1.415       .  A
C998        C999   1.407       .  A
C998       H1003   1.083       .  S
C999       C1000   1.414       .  A
C999       O1004   1.371       .  S
C1000      C1001   1.407       .  A
C1001      C1002   1.402       .  A
C1001      H1005   1.084       .  S
C1002      O1006   1.371       .  S
O1004      H1008   0.992       .  S
O1006      H1007   0.992       .  S
C1009      C1010   1.403       .  A
C1009      C1014   1.406       .  A
C1010      C1011   1.399       .  A
C1010      H1015   1.084       .  S
C1011      C1012   1.412       .  A
C1011      O1016   1.372       .  S
C1012      C1013   1.410       .  A
C1013      C1014   1.407       .  A
C1013      H1017   1.083   1_565  S
C1014      O1018   1.371       .  S
O1016      H1020   0.992       .  S
O1018      H1019   0.991       .  S
C1021      C1022   1.405       .  A
C1021      C1026   1.416       .  A
C1022      C1023   1.390       .  A
C1022      H1027   1.083       .  S
C1023      C1024   1.406       .  A
C1023      O1028   1.373       .  S
C1024      C1025   1.401       .  A
C1025      C1026   1.405       .  A
C1025      H1029   1.083       .  S
C1026      O1030   1.371       .  S
O1028      H1032   0.992       .  S
O1030      H1031   0.992       .  S
C1033      C1034   1.409       .  A
C1033      C1038   1.406       .  A
C1034      C1035   1.406       .  A
C1034      H1039   1.084       .  S
C1035      C1036   1.408       .  A
C1035      O1040   1.371       .  S
C1036      C1037   1.406       .  A
C1037      C1038   1.394       .  A
C1037      H1041   1.084       .  S
C1038      O1042   1.372       .  S
O1040      H1044   0.992       .  S
O1042      H1043   0.992       .  S
C1045      C1046   1.412       .  A
C1045      C1050   1.414       .  A
C1046      C1047   1.407       .  A
C1046      H1051   1.083       .  S
C1047      C1048   1.411       .  A
C1047      O1052   1.371       .  S
C1048      C1049   1.409       .  A
C1049      C1050   1.403       .  A
C1049      H1053   1.084       .  S
C1050      O1054   1.372       .  S
O1052      H1056   0.992       .  S
O1054      H1055   0.992       .  S
C1057      C1058   1.411       .  A
C1057      C1062   1.415       .  A
C1058      C1059   1.410       .  A
C1058      H1063   1.083       .  S
C1059      C1060   1.414       .  A
C1059      O1064   1.371       .  S
C1060      C1061   1.407   1_565  A
C1061      C1062   1.402   1_545  A
C1061      H1065   1.084       .  S
C1062      O1066   1.372   1_565  S
O1064      H1068   0.992       .  S
O1066      H1067   0.992   1_545  S
C1069      C1070   1.403       .  A
C1069      C1074   1.406       .  A
C1070      C1071   1.398       .  A
C1070      H1075   1.084       .  S
C1071      C1072   1.411       .  A
C1071      O1076   1.372       .  S
C1072      C1073   1.409   1_565  A
C1073      C1074   1.405   1_545  A
C1073      H1077   1.083       .  S
C1074      O1078   1.371   1_565  S
O1076      H1080   0.992       .  S
O1078      H1079   0.991       .  S
C1081      C1082   1.412       .  A
C1081      C1086   1.411       .  A
C1082      C1083   1.396       .  A
C1082      H1087   1.083       .  S
C1083      C1084   1.403       .  A
C1083      O1088   1.372       .  S
C1084      C1085   1.406       .  A
C1085      C1086   1.404       .  A
C1085      H1089   1.084       .  S
C1086      O1090   1.370       .  S
O1088      H1092   0.991       .  S
O1090      H1091   0.992       .  S
C1093      C1094   1.408       .  A
C1093      C1098   1.415       .  A
C1094      C1095   1.409       .  A
C1094      H1099   1.083       .  S
C1095      C1096   1.415       .  A
C1095      O1100   1.371       .  S
C1096      C1097   1.407       .  A
C1097      C1098   1.404       .  A
C1097      H1101   1.083       .  S
C1098      O1102   1.372       .  S
O1100      H1104   0.992       .  S
O1102      H1103   0.992       .  S
C1105      C1106   1.408       .  A
C1105      C1110   1.401       .  A
C1106      C1107   1.405       .  A
C1106      H1111   1.084       .  S
C1107      C1108   1.409       .  A
C1107      O1112   1.371       .  S
C1108      C1109   1.413       .  A
C1109      C1110   1.391       .  A
C1109      H1113   1.083       .  S
C1110      O1114   1.372       .  S
O1112      H1116   0.992       .  S
O1114      H1115   0.992       .  S
C1117      C1118   1.408       .  A
C1117      C1122   1.408       .  A
C1118      C1119   1.393       .  A
C1118      H1123   1.084       .  S
C1119      C1120   1.404       .  A
C1119      O1124   1.372       .  S
C1120      C1121   1.409       .  A
C1121      C1122   1.409       .  A
C1121      H1125   1.083       .  S
C1122      O1126   1.371       .  S
O1124      H1128   0.992       .  S
O1126      H1127   0.991       .  S
C1129      C1130   1.405       .  A
C1129      C1134   1.399       .  A
C1130      C1131   1.403       .  A
C1130      H1135   1.084       .  S
C1131      C1132   1.411       .  A
C1131      O1136   1.371       .  S
C1132      C1133   1.414       .  A
C1133      C1134   1.397       .  A
C1133      H1137   1.083       .  S
C1134      O1138   1.372       .  S
O1136      H1140   0.992       .  S
O1138      H1139   0.991       .  S
C1141      C1142   1.408       .  A
C1141      C1146   1.413       .  A
C1142      C1143   1.401       .  A
C1142      H1147   1.083       .  S
C1143      C1144   1.412       .  A
C1143      O1148   1.372       .  S
C1144      C1145   1.409       .  A
C1145      C1146   1.407       .  A
C1145      H1149   1.083       .  S
C1146      O1150   1.371       .  S
O1148      H1152   0.992       .  S
O1150      H1151   0.992       .  S
C1153      C1154   1.402       .  A
C1153      C1158   1.408       .  A
C1154      C1155   1.403       .  A
C1154      H1159   1.084       .  S
C1155      C1156   1.413       .  A
C1155      O1160   1.371       .  S
C1156      C1157   1.406       .  A
C1157      C1158   1.401       .  A
C1157      H1161   1.083       .  S
C1158      O1162   1.372       .  S
O1160      H1164   0.992       .  S
O1162      H1163   0.991       .  S
C1165      C1166   1.404       .  A
C1165      C1170   1.414       .  A
C1166      C1167   1.407       .  A
C1166      H1171   1.083       .  S
C1167      C1168   1.415       .  A
C1167      O1172   1.371       .  S
C1168      C1169   1.402       .  A
C1169      C1170   1.394       .  A
C1169      H1173   1.084       .  S
C1170      O1174   1.372       .  S
O1172      H1176   0.992       .  S
O1174      H1175   0.992       .  S
C1177      C1178   1.401       .  A
C1177      C1182   1.405   1_556  A
C1178      C1179   1.405   1_556  A
C1178      H1183   1.084       .  S
C1179      C1180   1.417       .  A
C1179      O1184   1.372       .  S
C1180      C1181   1.406       .  A
C1181      C1182   1.398       .  A
C1181      H1185   1.083       .  S
C1182      O1186   1.371       .  S
O1184      H1188   0.992       .  S
O1186      H1187   0.991       .  S
C1189      C1190   1.406       .  A
C1189      C1194   1.421       .  A
C1190      C1191   1.404       .  A
C1190      H1195   1.083       .  S
C1191      C1192   1.411       .  A
C1191      O1196   1.372       .  S
C1192      C1193   1.396       .  A
C1193      C1194   1.394       .  A
C1193      H1197   1.084       .  S
C1194      O1198   1.372       .  S
O1196      H1200   0.992       .  S
O1198      H1199   0.991       .  S
C1201      C1202   1.407       .  A
C1201      C1206   1.413       .  A
C1202      C1203   1.408       .  A
C1202      H1207   1.083       .  S
C1203      C1204   1.413       .  A
C1203      O1208   1.371       .  S
C1204      C1205   1.405       .  A
C1205      C1206   1.397       .  A
C1205      H1209   1.083       .  S
C1206      O1210   1.372       .  S
O1208      H1212   0.992       .  S
O1210      H1211   0.991       .  S
C1213      C1214   1.413       .  A
C1213      C1218   1.407       .  A
C1214      C1215   1.396       .  A
C1214      H1219   1.083       .  S
C1215      C1216   1.405       .  A
C1215      O1220   1.372       .  S
C1216      C1217   1.410       .  A
C1217      C1218   1.400       .  A
C1217      H1221   1.084       .  S
C1218      O1222   1.371       .  S
O1220      H1224   0.992       .  S
O1222      H1223   0.991       .  S
C1225      C1226   1.405       .  A
C1225      C1230   1.413       .  A
C1226      C1227   1.405       .  A
C1226      H1231   1.084       .  S
C1227      C1228   1.415       .  A
C1227      O1232   1.371       .  S
C1228      C1229   1.407       .  A
C1229      C1230   1.408       .  A
C1229      H1233   1.083       .  S
C1230      O1234   1.371       .  S
O1232      H1236   0.992       .  S
O1234      H1235   0.991       .  S
C1237      C1238   1.399       .  A
C1237      C1242   1.410       .  A
C1238      C1239   1.401       .  A
C1238      H1243   1.084       .  S
C1239      C1240   1.416       .  A
C1239      O1244   1.370       .  S
C1240      C1241   1.404       .  A
C1241      C1242   1.396       .  A
C1241      H1245   1.083       .  S
C1242      O1246   1.372   1_556  S
O1244      H1248   0.991       .  S
O1246      H1247   0.992       .  S
C1249      C1250   1.404       .  A
C1249      C1254   1.416       .  A
C1250      C1251   1.392       .  A
C1250      H1255   1.083   1_455  S
C1251      C1252   1.408       .  A
C1251      O1256   1.373       .  S
C1252      C1253   1.400       .  A
C1253      C1254   1.403       .  A
C1253      H1257   1.084       .  S
C1254      O1258   1.371       .  S
O1256      H1260   0.992   1_455  S
O1258      H1259   0.992       .  S
C1261      C1262   1.407       .  A
C1261      C1266   1.416       .  A
C1262      C1263   1.407       .  A
C1262      H1267   1.083       .  S
C1263      C1264   1.415       .  A
C1263      O1268   1.371       .  S
C1264      C1265   1.406       .  A
C1265      C1266   1.405       .  A
C1265      H1269   1.083       .  S
C1266      O1270   1.371       .  S
O1268      H1272   0.992       .  S
O1270      H1271   0.992       .  S
C1273      C1274   1.404       .  A
C1273      C1278   1.416   1_455  A
C1274      C1275   1.399       .  A
C1274      H1279   1.083       .  S
C1275      C1276   1.409   1_455  A
C1275      O1280   1.372       .  S
C1276      C1277   1.400       .  A
C1277      C1278   1.404       .  A
C1277      H1281   1.084       .  S
C1278      O1282   1.370       .  S
O1280      H1284   0.991   1_455  S
O1282      H1283   0.992       .  S
C1285      C1286   1.412   1_655  A
C1285      C1290   1.412       .  A
C1286      C1287   1.406       .  A
C1286      H1291   1.083       .  S
C1287      C1288   1.405       .  A
C1287      O1292   1.371       .  S
C1288      C1289   1.402       .  A
C1289      C1290   1.398   1_455  A
C1289      H1293   1.084       .  S
C1290      O1294   1.371       .  S
O1292      H1296   0.991       .  S
O1294      H1295   0.992       .  S
C1297      C1298   1.406       .  A
C1297      C1302   1.411       .  A
C1298      C1299   1.410       .  A
C1298      H1303   1.083       .  S
C1299      C1300   1.415       .  A
C1299      O1304   1.371       .  S
C1300      C1301   1.408       .  A
C1301      C1302   1.401       .  A
C1301      H1305   1.083       .  S
C1302      O1306   1.372       .  S
O1304      H1308   0.991       .  S
O1306      H1307   0.992       .  S
C1309      C1310   1.408       .  A
C1309      C1314   1.416       .  A
C1310      C1311   1.402       .  A
C1310      H1315   1.083       .  S
C1311      C1312   1.415       .  A
C1311      O1316   1.372       .  S
C1312      C1313   1.409       .  A
C1313      C1314   1.410       .  A
C1313      H1317   1.083       .  S
C1314      O1318   1.371       .  S
O1316      H1320   0.992       .  S
O1318      H1319   0.992       .  S
C1321      C1322   1.402       .  A
C1321      C1326   1.417       .  A
C1322      C1323   1.405       .  A
C1322      H1327   1.083       .  S
C1323      C1324   1.413       .  A
C1323      O1328   1.371       .  S
C1324      C1325   1.399       .  A
C1325      C1326   1.395       .  A
C1325      H1329   1.084       .  S
C1326      O1330   1.372       .  S
O1328      H1332   0.992       .  S
O1330      H1331   0.992       .  S
C1333      C1334   1.403       .  A
C1333      C1338   1.410       .  A
C1334      C1335   1.408       .  A
C1334      H1339   1.083       .  S
C1335      C1336   1.418       .  A
C1335      O1340   1.371       .  S
C1336      C1337   1.404       .  A
C1337      C1338   1.393       .  A
C1337      H1341   1.083       .  S
C1338      O1342   1.373       .  S
O1340      H1344   0.992       .  S
O1342      H1343   0.992       .  S
C1345      C1346   1.408       .  A
C1345      C1350   1.401       .  A
C1346      C1347   1.407       .  A
C1346      H1351   1.083       .  S
C1347      C1348   1.411       .  A
C1347      O1352   1.370       .  S
C1348      C1349   1.413       .  A
C1349      C1350   1.392       .  A
C1349      H1353   1.082       .  S
C1350      O1354   1.373       .  S
O1352      H1356   0.992       .  S
O1354      H1355   0.992       .  S
C1357      C1358   1.406       .  A
C1357      C1362   1.419       .  A
C1358      C1359   1.407       .  A
C1358      H1363   1.083       .  S
C1359      C1360   1.414       .  A
C1359      O1364   1.371       .  S
C1360      C1361   1.398       .  A
C1361      C1362   1.394       .  A
C1361      H1365   1.084       .  S
C1362      O1366   1.372       .  S
O1364      H1368   0.992       .  S
O1366      H1367   0.992       .  S
C1369      C1370   1.402       .  A
C1369      C1374   1.408       .  A
C1370      C1371   1.404       .  A
C1370      H1375   1.084       .  S
C1371      C1372   1.414       .  A
C1371      O1376   1.372       .  S
C1372      C1373   1.405       .  A
C1373      C1374   1.399       .  A
C1373      H1377   1.083       .  S
C1374      O1378   1.372       .  S
O1376      H1380   0.992       .  S
O1378      H1379   0.992       .  S
C1381      C1382   1.408       .  A
C1381      C1386   1.405       .  A
C1382      C1383   1.405       .  A
C1382      H1387   1.083       .  S
C1383      C1384   1.410       .  A
C1383      O1388   1.371       .  S
C1384      C1385   1.409       .  A
C1385      C1386   1.393       .  A
C1385      H1389   1.083       .  S
C1386      O1390   1.373   1_565  S
O1388      H1392   0.992       .  S
O1390      H1391   0.992       .  S
C1393      C1394   1.407       .  A
C1393      C1398   1.416       .  A
C1394      C1395   1.408       .  A
C1394      H1399   1.083       .  S
C1395      C1396   1.417       .  A
C1395      O1400   1.371       .  S
C1396      C1397   1.406       .  A
C1397      C1398   1.402       .  A
C1397      H1401   1.083       .  S
C1398      O1402   1.372       .  S
O1400      H1404   0.991       .  S
O1402      H1403   0.992       .  S
C1405      C1406   1.403       .  A
C1405      C1410   1.406       .  A
C1406      C1407   1.390       .  A
C1406      H1411   1.084       .  S
C1407      C1408   1.411       .  A
C1407      O1412   1.372       .  S
C1408      C1409   1.411       .  A
C1409      C1410   1.407       .  A
C1409      H1413   1.083       .  S
C1410      O1414   1.371       .  S
O1412      H1416   0.991       .  S
O1414      H1415   0.992       .  S
C1417      C1418   1.404       .  A
C1417      C1422   1.407       .  A
C1418      C1419   1.395       .  A
C1418      H1423   1.084       .  S
C1419      C1420   1.408       .  A
C1419      O1424   1.372       .  S
C1420      C1421   1.408       .  A
C1421      C1422   1.405       .  A
C1421      H1425   1.083       .  S
C1422      O1426   1.371       .  S
O1424      H1428   0.992       .  S
O1426      H1427   0.991       .  S
C1429      C1430   1.411       .  A
C1429      C1434   1.412       .  A
C1430      C1431   1.393       .  A
C1430      H1435   1.083       .  S
C1431      C1432   1.401       .  A
C1431      O1436   1.371       .  S
C1432      C1433   1.407       .  A
C1433      C1434   1.408       .  A
C1433      H1437   1.084       .  S
C1434      O1438   1.371       .  S
O1436      H1440   0.991       .  S
O1438      H1439   0.992       .  S
C1441      C1442   1.409       .  A
C1441      C1446   1.414       .  A
C1442      C1443   1.408       .  A
C1442      H1447   1.083       .  S
C1443      C1444   1.413       .  A
C1443      O1448   1.371       .  S
C1444      C1445   1.408       .  A
C1445      C1446   1.403       .  A
C1445      H1449   1.083       .  S
C1446      O1450   1.372       .  S
O1448      H1452   0.992       .  S
O1450      H1451   0.992       .  S
C1453      C1454   1.406       .  A
C1453      C1458   1.406       .  A
C1454      C1455   1.403       .  A
C1454      H1459   1.083       .  S
C1455      C1456   1.410       .  A
C1455      O1460   1.371       .  S
C1456      C1457   1.409       .  A
C1457      C1458   1.393       .  A
C1457      H1461   1.083       .  S
C1458      O1462   1.372       .  S
O1460      H1464   0.992       .  S
O1462      H1463   0.991       .  S
C1465      C1466   1.409       .  A
C1465      C1470   1.410       .  A
C1466      C1467   1.393       .  A
C1466      H1471   1.083       .  S
C1467      C1468   1.404       .  A
C1467      O1472   1.373       .  S
C1468      C1469   1.408       .  A
C1469      C1470   1.405       .  A
C1469      H1473   1.084       .  S
C1470      O1474   1.371       .  S
O1472      H1476   0.992       .  S
O1474      H1475   0.992       .  S
C1477      C1478   1.410       .  A
C1477      C1482   1.416       .  A
C1478      C1479   1.410       .  A
C1478      H1483   1.083       .  S
C1479      C1480   1.413       .  A
C1479      O1484   1.371       .  S
C1480      C1481   1.407       .  A
C1481      C1482   1.401       .  A
C1481      H1485   1.084       .  S
C1482      O1486   1.372       .  S
O1484      H1488   0.991       .  S
O1486      H1487   0.992       .  S
C1489      C1490   1.407       .  A
C1489      C1494   1.404       .  A
C1490      C1491   1.406       .  A
C1490      H1495   1.084       .  S
C1491      C1492   1.409       .  A
C1491      O1496   1.371       .  S
C1492      C1493   1.408       .  A
C1493      C1494   1.395       .  A
C1493      H1497   1.084       .  S
C1494      O1498   1.372       .  S
O1496      H1500   0.991       .  S
O1498      H1499   0.992       .  S
C1501      C1502   1.413       .  A
C1501      C1506   1.408       .  A
C1502      C1503   1.399       .  A
C1502      H1507   1.083       .  S
C1503      C1504   1.406       .  A
C1503      O1508   1.371       .  S
C1504      C1505   1.411       .  A
C1505      C1506   1.399       .  A
C1505      H1509   1.083       .  S
C1506      O1510   1.371       .  S
O1508      H1512   0.992       .  S
O1510      H1511   0.991       .  S
C1513      C1514   1.406       .  A
C1513      C1518   1.415       .  A
C1514      C1515   1.400       .  A
C1514      H1519   1.083       .  S
C1515      C1516   1.415       .  A
C1515      O1520   1.372   1_545  S
C1516      C1517   1.407       .  A
C1517      C1518   1.407       .  A
C1517      H1521   1.083       .  S
C1518      O1522   1.371       .  S
O1520      H1524   0.992       .  S
O1522      H1523   0.992       .  S
C1525      C1526   1.403       .  A
C1525      C1530   1.417       .  A
C1526      C1527   1.391       .  A
C1526      H1531   1.083       .  S
C1527      C1528   1.409       .  A
C1527      O1532   1.373       .  S
C1528      C1529   1.403       .  A
C1529      C1530   1.408       .  A
C1529      H1533   1.083       .  S
C1530      O1534   1.371       .  S
O1532      H1536   0.992       .  S
O1534      H1535   0.992       .  S
C1537      C1538   1.403       .  A
C1537      C1542   1.409       .  A
C1538      C1539   1.407   1_565  A
C1538      H1543   1.084   1_566  S
C1539      C1540   1.415   1_545  A
C1539      O1544   1.372       .  S
C1540      C1541   1.402       .  A
C1541      C1542   1.396       .  A
C1541      H1545   1.084       .  S
C1542      O1546   1.372       .  S
O1544      H1548   0.991       .  S
O1546      H1547   0.991       .  S
C1549      C1550   1.410       .  A
C1549      C1554   1.406       .  A
C1550      C1551   1.397       .  A
C1550      H1555   1.084       .  S
C1551      C1552   1.406       .  A
C1551      O1556   1.372       .  S
C1552      C1553   1.412       .  A
C1553      C1554   1.405       .  A
C1553      H1557   1.083       .  S
C1554      O1558   1.372       .  S
O1556      H1560   0.992       .  S
O1558      H1559   0.992       .  S
C1561      C1562   1.411       .  A
C1561      C1566   1.405       .  A
C1562      C1563   1.398       .  A
C1562      H1567   1.083       .  S
C1563      C1564   1.407       .  A
C1563      O1568   1.371       .  S
C1564      C1565   1.413       .  A
C1565      C1566   1.398       .  A
C1565      H1569   1.083       .  S
C1566      O1570   1.372       .  S
O1568      H1572   0.992       .  S
O1570      H1571   0.992       .  S
C1573      C1574   1.405       .  A
C1573      C1578   1.421       .  A
C1574      C1575   1.403       .  A
C1574      H1579   1.083       .  S
C1575      C1576   1.411       .  A
C1575      O1580   1.372       .  S
C1576      C1577   1.395       .  A
C1577      C1578   1.396       .  A
C1577      H1581   1.084       .  S
C1578      O1582   1.372       .  S
O1580      H1584   0.992       .  S
O1582      H1583   0.992       .  S
C1585      C1586   1.403       .  A
C1585      C1590   1.412       .  A
C1586      C1587   1.401       .  A
C1586      H1591   1.083       .  S
C1587      C1588   1.413       .  A
C1587      O1592   1.371       .  S
C1588      C1589   1.402       .  A
C1589      C1590   1.395       .  A
C1589      H1593   1.084   1_455  S
C1590      O1594   1.372       .  S
O1592      H1596   0.992       .  S
O1594      H1595   0.992   1_455  S
C1597      C1598   1.402       .  A
C1597      C1602   1.416       .  A
C1598      C1599   1.392       .  A
C1598      H1603   1.084       .  S
C1599      C1600   1.412       .  A
C1599      O1604   1.372       .  S
C1600      C1601   1.405       .  A
C1601      C1602   1.408       .  A
C1601      H1605   1.083       .  S
C1602      O1606   1.371       .  S
O1604      H1608   0.992       .  S
O1606      H1607   0.992       .  S
C1609      C1610   1.405       .  A
C1609      C1614   1.411       .  A
C1610      C1611   1.404       .  A
C1610      H1615   1.084       .  S
C1611      C1612   1.413       .  A
C1611      O1616   1.372       .  S
C1612      C1613   1.408       .  A
C1613      C1614   1.407       .  A
C1613      H1617   1.083       .  S
C1614      O1618   1.371       .  S
O1616      H1620   0.991       .  S
O1618      H1619   0.991       .  S
C1621      C1622   1.410       .  A
C1621      C1626   1.405       .  A
C1622      C1623   1.407       .  A
C1622      H1627   1.083       .  S
C1623      C1624   1.409       .  A
C1623      O1628   1.371       .  S
C1624      C1625   1.409       .  A
C1625      C1626   1.394       .  A
C1625      H1629   1.083       .  S
C1626      O1630   1.373       .  S
O1628      H1632   0.992       .  S
O1630      H1631   0.992       .  S
C1633      C1634   1.406       .  A
C1633      C1638   1.404       .  A
C1634      C1635   1.406       .  A
C1634      H1639   1.084       .  S
C1635      C1636   1.413       .  A
C1635      O1640   1.371       .  S
C1636      C1637   1.412       .  A
C1637      C1638   1.398       .  A
C1637      H1641   1.083       .  S
C1638      O1642   1.372       .  S
O1640      H1644   0.992       .  S
O1642      H1643   0.991       .  S
C1645      C1646   1.408       .  A
C1645      C1650   1.415       .  A
C1646      C1647   1.409       .  A
C1646      H1651   1.083       .  S
C1647      C1648   1.415       .  A
C1647      O1652   1.371       .  S
C1648      C1649   1.407       .  A
C1649      C1650   1.399       .  A
C1649      H1653   1.083       .  S
C1650      O1654   1.373       .  S
O1652      H1656   0.991       .  S
O1654      H1655   0.992       .  S
C1657      C1658   1.411       .  A
C1657      C1662   1.411       .  A
C1658      C1659   1.407       .  A
C1658      H1663   1.083       .  S
C1659      C1660   1.405       .  A
C1659      O1664   1.371       .  S
C1660      C1661   1.403       .  A
C1661      C1662   1.399       .  A
C1661      H1665   1.084       .  S
C1662      O1666   1.371       .  S
O1664      H1668   0.991       .  S
O1666      H1667   0.992       .  S
C1669      C1670   1.409       .  A
C1669      C1674   1.404       .  A
C1670      C1671   1.406       .  A
C1670      H1675   1.083       .  S
C1671      C1672   1.409       .  A
C1671      O1676   1.371       .  S
C1672      C1673   1.410       .  A
C1673      C1674   1.392       .  A
C1673      H1677   1.083       .  S
C1674      O1678   1.373       .  S
O1676      H1680   0.992       .  S
O1678      H1679   0.992       .  S
C1681      C1682   1.403       .  A
C1681      C1686   1.416       .  A
C1682      C1683   1.391       .  A
C1682      H1687   1.084       .  S
C1683      C1684   1.410       .  A
C1683      O1688   1.373       .  S
C1684      C1685   1.402       .  A
C1685      C1686   1.406       .  A
C1685      H1689   1.083       .  S
C1686      O1690   1.371       .  S
O1688      H1692   0.992       .  S
O1690      H1691   0.992       .  S
C1693      C1694   1.407       .  A
C1693      C1698   1.415       .  A
C1694      C1695   1.403   1_565  A
C1694      H1699   1.083   1_565  S
C1695      C1696   1.416   1_545  A
C1695      O1700   1.372       .  S
C1696      C1697   1.408       .  A
C1697      C1698   1.408       .  A
C1697      H1701   1.083       .  S
C1698      O1702   1.371       .  S
O1700      H1704   0.991       .  S
O1702      H1703   0.992       .  S
C1705      C1706   1.409       .  A
C1705      C1710   1.412       .  A
C1706      C1707   1.402   1_554  A
C1706      H1711   1.083       .  S
C1707      C1708   1.404       .  A
C1707      O1712   1.371       .  S
C1708      C1709   1.400   1_556  A
C1709      C1710   1.395       .  A
C1709      H1713   1.084       .  S
C1710      O1714   1.372       .  S
O1712      H1716   0.992       .  S
O1714      H1715   0.992       .  S
C1717      C1718   1.405       .  A
C1717      C1722   1.399       .  A
C1718      C1719   1.403       .  A
C1718      H1723   1.084       .  S
C1719      C1720   1.412       .  A
C1719      O1724   1.371       .  S
C1720      C1721   1.413       .  A
C1721      C1722   1.395       .  A
C1721      H1725   1.083       .  S
C1722      O1726   1.371       .  S
O1724      H1728   0.992       .  S
O1726      H1727   0.992       .  S
C1729      C1730   1.403       .  A
C1729      C1734   1.415       .  A
C1730      C1731   1.398       .  A
C1730      H1735   1.084       .  S
C1731      C1732   1.410       .  A
C1731      O1736   1.372       .  S
C1732      C1733   1.401       .  A
C1733      C1734   1.405       .  A
C1733      H1737   1.084       .  S
C1734      O1738   1.372       .  S
O1736      H1740   0.992       .  S
O1738      H1739   0.992       .  S
C1741      C1742   1.409       .  A
C1741      C1746   1.412       .  A
C1742      C1743   1.401       .  A
C1742      H1747   1.083       .  S
C1743      C1744   1.412       .  A
C1743      O1748   1.371       .  S
C1744      C1745   1.411       .  A
C1745      C1746   1.409       .  A
C1745      H1749   1.083       .  S
C1746      O1750   1.371       .  S
O1748      H1752   0.992       .  S
O1750      H1751   0.992       .  S
C1753      C1754   1.408       .  A
C1753      C1758   1.403       .  A
C1754      C1755   1.407       .  A
C1754      H1759   1.084       .  S
C1755      C1756   1.411       .  A
C1755      O1760   1.371       .  S
C1756      C1757   1.411       .  A
C1757      C1758   1.394       .  A
C1757      H1761   1.083       .  S
C1758      O1762   1.372       .  S
O1760      H1764   0.992       .  S
O1762      H1763   0.992       .  S
C1765      C1766   1.407       .  A
C1765      C1770   1.414       .  A
C1766      C1767   1.402       .  A
C1766      H1771   1.083       .  S
C1767      C1768   1.414       .  A
C1767      O1772   1.372       .  S
C1768      C1769   1.409       .  A
C1769      C1770   1.408       .  A
C1769      H1773   1.083       .  S
C1770      O1774   1.371       .  S
O1772      H1776   0.992       .  S
O1774      H1775   0.991       .  S
C1777      C1778   1.408       .  A
C1777      C1782   1.407       .  A
C1778      C1779   1.405       .  A
C1778      H1783   1.084       .  S
C1779      C1780   1.407       .  A
C1779      O1784   1.371       .  S
C1780      C1781   1.406       .  A
C1781      C1782   1.397       .  A
C1781      H1785   1.084       .  S
C1782      O1786   1.372       .  S
O1784      H1788   0.992       .  S
O1786      H1787   0.992       .  S
C1789      C1790   1.406       .  A
C1789      C1794   1.408       .  A
C1790      C1791   1.392       .  A
C1790      H1795   1.084       .  S
C1791      C1792   1.410       .  A
C1791      O1796   1.373       .  S
C1792      C1793   1.412       .  A
C1793      C1794   1.410       .  A
C1793      H1797   1.083       .  S
C1794      O1798   1.371       .  S
O1796      H1800   0.992       .  S
O1798      H1799   0.992       .  S
C1801      C1802   1.400       .  A
C1801      C1806   1.413       .  A
C1802      C1803   1.393       .  A
C1802      H1807   1.084       .  S
C1803      C1804   1.417       .  A
C1803      O1808   1.373       .  S
C1804      C1805   1.406       .  A
C1805      C1806   1.408       .  A
C1805      H1809   1.083       .  S
C1806      O1810   1.371       .  S
O1808      H1812   0.992       .  S
O1810      H1811   0.992       .  S
C1813      C1814   1.406       .  A
C1813      C1818   1.416       .  A
C1814      C1815   1.406       .  A
C1814      H1819   1.083       .  S
C1815      C1816   1.415       .  A
C1815      O1820   1.371       .  S
C1816      C1817   1.406       .  A
C1817      C1818   1.402       .  A
C1817      H1821   1.083       .  S
C1818      O1822   1.372       .  S
O1820      H1824   0.992       .  S
O1822      H1823   0.991       .  S
C1825      C1826   1.408       .  A
C1825      C1830   1.410       .  A
C1826      C1827   1.404       .  A
C1826      H1831   1.083       .  S
C1827      C1828   1.407       .  A
C1827      O1832   1.371       .  S
C1828      C1829   1.405       .  A
C1829      C1830   1.399       .  A
C1829      H1833   1.084       .  S
C1830      O1834   1.372       .  S
O1832      H1836   0.992       .  S
O1834      H1835   0.991       .  S
C1837      C1838   1.403       .  A
C1837      C1842   1.410       .  A
C1838      C1839   1.407       .  A
C1838      H1843   1.083       .  S
C1839      C1840   1.416       .  A
C1839      O1844   1.371       .  S
C1840      C1841   1.404       .  A
C1841      C1842   1.392       .  A
C1841      H1845   1.083       .  S
C1842      O1846   1.372       .  S
O1844      H1848   0.992       .  S
O1846      H1847   0.992       .  S
C1849      C1850   1.408       .  A
C1849      C1854   1.408       .  A
C1850      C1851   1.397       .  A
C1850      H1855   1.084       .  S
C1851      C1852   1.407       .  A
C1851      O1856   1.372       .  S
C1852      C1853   1.410       .  A
C1853      C1854   1.409       .  A
C1853      H1857   1.083   1_655  S
C1854      O1858   1.371   1_655  S
O1856      H1860   0.992       .  S
O1858      H1859   0.991       .  S
C1861      C1862   1.409       .  A
C1861      C1866   1.415       .  A
C1862      C1863   1.404       .  A
C1862      H1867   1.083       .  S
C1863      C1864   1.409       .  A
C1863      O1868   1.372       .  S
C1864      C1865   1.408       .  A
C1865      C1866   1.410       .  A
C1865      H1869   1.083   1_655  S
C1866      O1870   1.371   1_655  S
O1868      H1872   0.991       .  S
O1870      H1871   0.991       .  S
C1873      C1874   1.405       .  A
C1873      C1878   1.420       .  A
C1874      C1875   1.404       .  A
C1874      H1879   1.083       .  S
C1875      C1876   1.412       .  A
C1875      O1880   1.371       .  S
C1876      C1877   1.397       .  A
C1877      C1878   1.394       .  A
C1877      H1881   1.084       .  S
C1878      O1882   1.372       .  S
O1880      H1884   0.992       .  S
O1882      H1883   0.992       .  S
C1885      C1886   1.407       .  A
C1885      C1890   1.413       .  A
C1886      C1887   1.408       .  A
C1886      H1891   1.083       .  S
C1887      C1888   1.414       .  A
C1887      O1892   1.371       .  S
C1888      C1889   1.406       .  A
C1889      C1890   1.398       .  A
C1889      H1893   1.084   1_455  S
C1890      O1894   1.372   1_455  S
O1892      H1896   0.991       .  S
O1894      H1895   0.992       .  S
C1897      C1898   1.404       .  A
C1897      C1902   1.406       .  A
C1898      C1899   1.395       .  A
C1898      H1903   1.083       .  S
C1899      C1900   1.410       .  A
C1899      O1904   1.372       .  S
C1900      C1901   1.409       .  A
C1901      C1902   1.402       .  A
C1901      H1905   1.083       .  S
C1902      O1906   1.372       .  S
O1904      H1908   0.992       .  S
O1906      H1907   0.992       .  S
