geometry optimzed in LAMMPS
_audit_creation_date              2020-11-30 
_audit_creation_method            'lammps2cif' 
_symmetry_space_group_name_H-M    'P1' 
_symmetry_Int_Tables_number       1 
_symmetry_cell_setting            triclinic 
loop_ 
_symmetry_equiv_pos_as_xyz 
  x,y,z 
_cell_length_a                    56.49198206 
_cell_length_b                    56.16430081500543 
_cell_length_c                    25.325082003029962 
_cell_angle_alpha                 89.80673123489879 
_cell_angle_beta                  89.81758018105128 
_cell_angle_gamma                 120.84811243375644 
loop_ 
_atom_site_label 
_atom_site_type_symbol 
_atom_site_fract_x 
_atom_site_fract_y 
_atom_site_fract_z 
_atom_site_charge 
C1          C  0.00917939  0.45047863  0.66636203    -0.00700
In2        In  0.67486892  0.14898488  0.83307234     1.36900
C3          C  0.63592822  0.16237841  0.82837980     0.79400
O4          O  0.66602435  0.11858014  0.76667633    -0.59100
O5          O  0.64072485  0.10457510  0.83475585    -0.50000
C6          C  0.72460188  0.18616489  0.79452985     0.72000
O7          O  0.70361209  0.18836998  0.78941279    -0.44800
C8          C  0.68702057  0.14916937  0.93434021     0.76800
O9          O  0.64708679  0.15950032  0.78761416    -0.56700
O10         O  0.68160819  0.12900481  0.90446427    -0.46800
O11         O  0.64613218  0.16026158  0.87095601    -0.53100
C12         C  0.64470157  0.09913310  0.78858441     0.86900
O13         O  0.71961418  0.16371381  0.81587592    -0.55000
O14         O  0.68718124  0.16920544  0.91140573    -0.58300
In15       In  0.86903440  0.33160229  0.83866962     1.36900
C16         C  0.85740925  0.37202649  0.84651885     0.79400
O17         O  0.84536100  0.31669315  0.91402810    -0.59100
O18         O  0.88411625  0.31932161  0.91092457    -0.50000
C19         C  0.83059158  0.28447602  0.79549980     0.72000
O20         O  0.83131434  0.30717658  0.79090166    -0.44800
C21         C  0.91708110  0.35969327  0.78561531     0.76800
O22         O  0.84747652  0.35380499  0.81114300    -0.56700
O23         O  0.91509316  0.35988809  0.83504736    -0.46800
O24         O  0.87333750  0.36950143  0.87753453    -0.53100
C25         C  0.86344945  0.31447769  0.93874102     0.86900
O26         O  0.85134173  0.28632999  0.81852246    -0.55000
O27         O  0.89482999  0.34269318  0.76339676    -0.58300
In28       In  0.53414643  0.67591325  0.84575673     1.36900
C29         C  0.48097782  0.63772269  0.83810679     0.79400
O30         O  0.55836264  0.66954633  0.78038315    -0.59100
O31         O  0.53936395  0.63943982  0.84106792    -0.50000
C32         C  0.54666687  0.72539286  0.80949642     0.72000
O33         O  0.52332319  0.70387128  0.80386324    -0.44800
C34         C  0.54541099  0.68738280  0.94773900     0.76800
O35         O  0.49521828  0.65122633  0.79850564    -0.56700
O36         O  0.55947668  0.68101012  0.91841499    -0.46800
O37         O  0.49368178  0.64507833  0.88127199    -0.53100
C38         C  0.55161414  0.64568141  0.79721810     0.86900
O39         O  0.56458558  0.72119460  0.82996529    -0.55000
O40         O  0.52658442  0.68876665  0.92404314    -0.58300
In41       In  0.52892362  0.85934993  0.84348369     1.36900
C42         C  0.47463364  0.83768008  0.83873276     0.79400
O43         O  0.52703002  0.83983659  0.92104488    -0.59100
O44         O  0.55209498  0.88354171  0.91579653    -0.50000
C45         C  0.54419764  0.82519317  0.80606462     0.72000
O46         O  0.52058632  0.82174187  0.79870973    -0.44800
C47         C  0.54479245  0.90743017  0.79457481     0.76800
O48         O  0.48935251  0.84171244  0.79827796    -0.56700
O49         O  0.52932039  0.89877718  0.83450063    -0.46800
O50         O  0.48757543  0.84321437  0.88162539    -0.53100
C51         C  0.54253106  0.86218238  0.94475962     0.86900
O52         O  0.56103668  0.84782203  0.82794924    -0.55000
O53         O  0.55446699  0.89240675  0.78136401    -0.58300
C54         C  0.55806824  0.00334691  0.67224222    -0.00700
C55         C  0.56011593  0.55892671  0.68262591    -0.00700
In56       In  0.14573174  0.66096854  0.83139470     1.36900
C57         C  0.15746861  0.62064340  0.82695741     0.79400
O58         O  0.16640715  0.67438626  0.90985304    -0.59100
O59         O  0.12592551  0.66733693  0.90429761    -0.50000
C60         C  0.18507306  0.71024834  0.79572615     0.72000
O61         O  0.18646996  0.68861249  0.79282712    -0.44800
C62         C  0.09780133  0.63488219  0.77906903     0.76800
O63         O  0.15927034  0.63500893  0.78716839    -0.56700
O64         O  0.10057492  0.63013859  0.82656212    -0.46800
O65         O  0.15028627  0.62741614  0.86863211    -0.53100
C66         C  0.14645970  0.67380099  0.93355376     0.86900
O67         O  0.16242945  0.70628645  0.81374008    -0.55000
O68         O  0.11929002  0.65499667  0.75915879    -0.58300
In69       In  0.33562578  0.84987709  0.84112215     1.36900
C70         C  0.37109908  0.83218244  0.83733794     0.79400
O71         O  0.34285128  0.88174162  0.77755175    -0.59100
O72         O  0.37447917  0.89059118  0.83234177    -0.50000
C73         C  0.28749806  0.81221968  0.80001844     0.72000
O74         O  0.30870367  0.81026738  0.79857250    -0.44800
C75         C  0.32315790  0.85344073  0.94167660     0.76800
O76         O  0.36017315  0.83529297  0.79658188    -0.56700
O77         O  0.33167192  0.87357934  0.90980823    -0.46800
O78         O  0.36257239  0.83665403  0.88010581    -0.53100
C79         C  0.36749049  0.89804220  0.79130796     0.86900
O80         O  0.29144802  0.83469698  0.81915247    -0.55000
O81         O  0.32028116  0.83169089  0.92131217    -0.58300
C82         C  0.44854353  0.99708116  0.67124270    -0.00700
In83       In  0.34143712  0.47921146  0.83681854     1.36900
C84         C  0.37939664  0.53322037  0.83315620     0.79400
O85         O  0.33068441  0.48614374  0.91744612    -0.59100
O86         O  0.33731972  0.45242393  0.90701616    -0.50000
C87         C  0.29033537  0.46313835  0.80433525     0.72000
O88         O  0.31055689  0.48742311  0.79883809    -0.44800
C89         C  0.37134528  0.46213419  0.78504575     0.76800
O90         O  0.36869110  0.51916942  0.79219754    -0.56700
O91         O  0.37209426  0.46493571  0.83444465    -0.46800
O92         O  0.36965104  0.51985242  0.87540738    -0.53100
C93         C  0.33166998  0.46628103  0.93856977     0.86900
O94         O  0.29653682  0.44628605  0.82342447    -0.55000
O95         O  0.35325032  0.46544068  0.76295413    -0.58300
In96       In  0.14733647  0.46717559  0.83117070     1.36900
C97         C  0.16110629  0.52015178  0.82704148     0.79400
O98         O  0.11984196  0.44817244  0.75883152    -0.59100
O99         O  0.10386614  0.45726834  0.82645485    -0.50000
C100        C  0.18597911  0.45623049  0.80005465     0.72000
O101        O  0.18785596  0.47940007  0.79365897    -0.44800
C102        C  0.14506173  0.45504900  0.93334167     0.76800
O103        O  0.16213656  0.50747322  0.78688758    -0.56700
O104        O  0.12585919  0.43942091  0.90211098    -0.46800
O105        O  0.15505830  0.50626766  0.86913800    -0.53100
C106        C  0.10073382  0.45080178  0.77844713     0.86900
O107        O  0.16303164  0.43757688  0.81859529    -0.55000
O108        O  0.16524589  0.47570674  0.91140277    -0.58300
In109      In  0.47587708  0.32711780  0.82723725     1.36900
C110        C  0.52735470  0.36932721  0.83977470     0.79400
O111        O  0.47915637  0.34984681  0.75272197    -0.59100
O112        O  0.44668016  0.34213665  0.80470910    -0.50000
C113        C  0.46392982  0.27721897  0.79284628     0.72000
O114        O  0.48779387  0.29825635  0.79237936    -0.44800
C115        C  0.46348839  0.31636090  0.92916971     0.76800
O116        O  0.52088786  0.35110504  0.80479595    -0.56700
O117        O  0.45036534  0.32356501  0.89915543    -0.46800
O118        O  0.50758619  0.36547902  0.86896237    -0.53100
C119        C  0.46018266  0.35449144  0.76366122     0.86900
O120        O  0.44537820  0.28204395  0.80719670    -0.55000
O121        O  0.48177531  0.31366634  0.90601239    -0.58300
In122      In  0.47752636  0.13971851  0.83800961     1.36900
C123        C  0.53083071  0.15566039  0.83072403     0.79400
O124        O  0.48785769  0.16185968  0.91440456    -0.59100
O125        O  0.45146731  0.12221131  0.91213121    -0.50000
C126        C  0.46488504  0.17625174  0.80005168     0.72000
O127        O  0.48748032  0.17761227  0.79066330    -0.44800
C128        C  0.45621252  0.08921799  0.79511086     0.76800
O129        O  0.51657897  0.15342017  0.79068711    -0.56700
O130        O  0.46779507  0.09560512  0.83941658    -0.46800
O131        O  0.51789780  0.15056725  0.87375634    -0.53100
C132        C  0.46753606  0.14309494  0.93963285     0.86900
O133        O  0.44775397  0.15472411  0.82508442    -0.55000
O134        O  0.45329924  0.10804727  0.77455574    -0.58300
C135        C  0.45489873  0.44816080  0.66974397    -0.00700
In136      In  0.85516108  0.51997155  0.83098664     1.36900
C137        C  0.84815430  0.46960373  0.84572335     0.79400
O138        O  0.87459345  0.52000263  0.75332455    -0.59100
O139        O  0.90035648  0.54892010  0.81042878    -0.50000
C140        C  0.81715791  0.53092328  0.79523076     0.72000
O141        O  0.81378790  0.50694703  0.79629416    -0.44800
C142        C  0.85484670  0.53379614  0.93143289     0.76800
O143        O  0.83463753  0.47441578  0.81217799    -0.56700
O144        O  0.87527648  0.54787453  0.90112778    -0.46800
O145        O  0.86432115  0.49036116  0.87296783    -0.53100
C146        C  0.89877642  0.53806917  0.76603312     0.86900
O147        O  0.84104023  0.54981450  0.80831983    -0.55000
O148        O  0.83469134  0.51331812  0.90953473    -0.58300
In149      In  0.67090098  0.52666353  0.85101517     1.36900
C150        C  0.62992128  0.47371073  0.85091635     0.79400
O151        O  0.68457627  0.52151967  0.93052574    -0.59100
O152        O  0.68070378  0.55671088  0.91895763    -0.50000
C153        C  0.71813188  0.53438627  0.80959357     0.72000
O154        O  0.69620786  0.51112721  0.81264360    -0.44800
C155        C  0.64333055  0.54735127  0.80130678     0.76800
O156        O  0.64325051  0.48623623  0.80988179    -0.56700
O157        O  0.63876720  0.53882422  0.84833327    -0.46800
O158        O  0.63830616  0.48809705  0.89216387    -0.53100
C159        C  0.68600234  0.54268259  0.95075110     0.86900
O160        O  0.71561602  0.55431443  0.82535402    -0.55000
O161        O  0.66364630  0.54729520  0.78055529    -0.58300
C162        C  0.99917108  0.55196085  0.66355110    -0.00700
In163      In  0.67376046  0.14125958  0.26302354     1.36900
C164        C  0.63167352  0.14954518  0.25895609     0.79400
O165        O  0.68213643  0.16269147  0.18532317    -0.59100
O166        O  0.68624497  0.12724178  0.19028454    -0.50000
C167        C  0.72217562  0.17847726  0.30265728     0.72000
O168        O  0.70043787  0.17913203  0.30998054    -0.44800
C169        C  0.64709381  0.09400665  0.31727394     0.76800
O170        O  0.65320029  0.16538447  0.28462160    -0.56700
O171        O  0.64929662  0.09490179  0.26778571    -0.46800
O172        O  0.63221574  0.13004638  0.23592480    -0.53100
C173        C  0.68691419  0.14595940  0.16135604     0.86900
O174        O  0.71865578  0.15727724  0.27836887    -0.55000
O175        O  0.66129012  0.11715062  0.33947621    -0.58300
In176      In  0.85761985  0.33193172  0.26500052     1.36900
C177        C  0.84905142  0.37366920  0.24923834     0.79400
O178        O  0.87767865  0.35588493  0.33867664    -0.59100
O179        O  0.90183451  0.34789574  0.28603486    -0.50000
C180        C  0.82154328  0.28237492  0.30528576     0.72000
O181        O  0.81737343  0.30233653  0.30382342    -0.44800
C182        C  0.85839670  0.31825789  0.16468929     0.76800
O183        O  0.83450870  0.35387154  0.28053511    -0.56700
O184        O  0.87891487  0.32648160  0.19475087    -0.46800
O185        O  0.86716015  0.37132990  0.22457352    -0.53100
C186        C  0.90130369  0.36052168  0.32666885     0.86900
O187        O  0.84522312  0.28837619  0.28987347    -0.55000
O188        O  0.83752905  0.31661928  0.18666818    -0.58300
C189        C  0.55923011  0.55901803  0.44571608    -0.00700
In190      In  0.53157837  0.67155604  0.27600890     1.36900
C191        C  0.48280309  0.62545460  0.26684568     0.79400
O192        O  0.52257386  0.68242197  0.19697602    -0.59100
O193        O  0.55949094  0.68158289  0.20492123    -0.50000
C194        C  0.54027875  0.71889939  0.31656570     0.72000
O195        O  0.51678438  0.69853741  0.30647018    -0.44800
C196        C  0.54878619  0.64628542  0.33940790     0.76800
O197        O  0.48633617  0.64574711  0.29423510    -0.56700
O198        O  0.56181611  0.65822831  0.29764829    -0.46800
O199        O  0.50411256  0.62943142  0.24271097    -0.53100
C200        C  0.54376380  0.68507701  0.17468233     0.86900
O201        O  0.55988138  0.71473814  0.30786680    -0.55000
O202        O  0.52963014  0.65047792  0.35158337    -0.58300
In203      In  0.53262876  0.85722578  0.27455574     1.36900
C204        C  0.47983031  0.84183259  0.26657541     0.79400
O205        O  0.52412277  0.88071690  0.33316658    -0.59100
O206        O  0.56525597  0.90003079  0.30519930    -0.50000
C207        C  0.54217061  0.81983872  0.31820232     0.72000
O208        O  0.51873030  0.81604693  0.30856531    -0.44800
C209        C  0.54556030  0.86099093  0.17214861     0.76800
O210        O  0.48916172  0.83490426  0.30507307    -0.56700
O211        O  0.55422199  0.88210863  0.20103005    -0.46800
O212        O  0.49746642  0.85580664  0.23132309    -0.53100
C213        C  0.54757230  0.90208761  0.33227156     0.86900
O214        O  0.56178327  0.84398019  0.30742723    -0.55000
O215        O  0.53180668  0.83833369  0.19667446    -0.58300
C216        C  0.55910228  0.00063801  0.43711013    -0.00700
C217        C  0.00428410  0.44995844  0.42475871    -0.00700
In218      In  0.85899812  0.52735735  0.26052882     1.36900
C219        C  0.85042239  0.47679155  0.24677055     0.79400
O220        O  0.83758165  0.51872499  0.18350027    -0.59100
O221        O  0.87845178  0.55306308  0.18640803    -0.50000
C222        C  0.82258964  0.53955519  0.30012839     0.72000
O223        O  0.81894110  0.51548659  0.29978613    -0.44800
C224        C  0.90133772  0.54278475  0.32625051     0.76800
O225        O  0.83501663  0.48167313  0.27523217    -0.56700
O226        O  0.90338130  0.55649766  0.28503747    -0.46800
O227        O  0.86977777  0.49786061  0.22404898    -0.53100
C228        C  0.85745979  0.53808988  0.15840582     0.86900
O229        O  0.84594715  0.55806179  0.28306723    -0.55000
O230        O  0.87725743  0.52320768  0.33581144    -0.58300
In231      In  0.67495071  0.53381313  0.27931396     1.36900
C232        C  0.63488790  0.48055666  0.28323708     0.79400
O233        O  0.66639307  0.55368483  0.34890632    -0.59100
O234        O  0.64355391  0.54704368  0.27912270    -0.50000
C235        C  0.72398160  0.54400239  0.31381733     0.72000
O236        O  0.70193655  0.52107469  0.31984117    -0.44800
C237        C  0.68767772  0.54629014  0.17742130     0.76800
O238        O  0.64595301  0.49430104  0.32441613    -0.56700
O239        O  0.68328044  0.56157658  0.20756694    -0.46800
O240        O  0.64501430  0.49390710  0.24107545    -0.53100
C241        C  0.64666395  0.55423191  0.32681733     0.86900
O242        O  0.72055455  0.56284693  0.29486584    -0.55000
O243        O  0.68621399  0.52557488  0.20014928    -0.58300
C244        C  0.00073432  0.55403203  0.42567240    -0.00700
In245      In  0.33604852  0.46967596  0.26848931     1.36900
C246        C  0.38018372  0.52012186  0.26079668     0.79400
O247        O  0.35610415  0.47230642  0.34578412    -0.59100
O248        O  0.34968008  0.43979861  0.29445026    -0.50000
C249        C  0.28583165  0.45748137  0.29936786     0.72000
O250        O  0.30712760  0.48090178  0.30579232    -0.44800
C251        C  0.32778633  0.46024957  0.16538124     0.76800
O252        O  0.35818145  0.51555392  0.28304889    -0.56700
O253        O  0.33213082  0.44483360  0.19531390    -0.46800
O254        O  0.37876925  0.49903655  0.24018918    -0.53100
C255        C  0.36127457  0.45354325  0.33545562     0.86900
O256        O  0.29053085  0.43930946  0.28161271    -0.55000
O257        O  0.32724593  0.47976277  0.18866413    -0.58300
In258      In  0.14596862  0.46882131  0.26290746     1.36900
C259        C  0.16248999  0.52236735  0.26896695     0.79400
O260        O  0.16181402  0.47889500  0.18113380    -0.59100
O261        O  0.12453498  0.44046435  0.19286799    -0.50000
C262        C  0.18401568  0.45705600  0.29490945     0.72000
O263        O  0.18509051  0.47950170  0.30522235    -0.44800
C264        C  0.09792669  0.45252872  0.31175158     0.76800
O265        O  0.15628340  0.50699272  0.30925485    -0.56700
O266        O  0.10355261  0.46191504  0.26531971    -0.46800
O267        O  0.16257331  0.51081008  0.22656576    -0.53100
C268        C  0.14280530  0.45705433  0.16056264     0.86900
O269        O  0.16205204  0.43946248  0.27242868    -0.55000
O270        O  0.11544580  0.44748817  0.33143864    -0.58300
In271      In  0.48026861  0.33650458  0.25682559     1.36900
C272        C  0.53237842  0.37684565  0.26991521     0.79400
O273        O  0.48987907  0.32927389  0.17568510    -0.59100
O274        O  0.45097850  0.32565015  0.18738928    -0.50000
C275        C  0.47191623  0.28784147  0.29263528     0.72000
O276        O  0.49513308  0.30974107  0.29005082    -0.44800
C277        C  0.46064671  0.36478227  0.30576318     0.76800
O278        O  0.51682993  0.36346394  0.30820628    -0.56700
O279        O  0.46995031  0.37017303  0.25923073    -0.46800
O280        O  0.52142528  0.36873625  0.22523014    -0.53100
C281        C  0.46745327  0.32422006  0.15543390     0.86900
O282        O  0.45216393  0.29098016  0.27919437    -0.55000
O283        O  0.45831319  0.34281815  0.32459892    -0.58300
In284      In  0.48259235  0.14760913  0.26831587     1.36900
C285        C  0.53228226  0.15436883  0.25743599     0.79400
O286        O  0.48287976  0.12731959  0.34512237    -0.59100
O287        O  0.45439295  0.10219423  0.28693068    -0.50000
C288        C  0.47298183  0.18661118  0.30347482     0.72000
O289        O  0.49648284  0.18927440  0.30200078    -0.44800
C290        C  0.47046064  0.14772833  0.16658589     0.76800
O291        O  0.52785914  0.16971354  0.28703250    -0.56700
O292        O  0.45483054  0.12816073  0.19757701    -0.46800
O293        O  0.51153228  0.13677828  0.23199430    -0.53100
C294        C  0.46560081  0.10309745  0.33047484     0.86900
O295        O  0.45359289  0.16267999  0.29129844    -0.55000
O296        O  0.49152261  0.16715554  0.18841592    -0.58300
C297        C  0.45291210  0.44783014  0.43498820    -0.00700
In298      In  0.15022331  0.66493133  0.26319785     1.36900
C299        C  0.16095639  0.62388340  0.26533721     0.79400
O300        O  0.12435415  0.65511621  0.33811203    -0.59100
O301        O  0.10432502  0.63659850  0.26694282    -0.50000
C302        C  0.18908854  0.71378790  0.30134232     0.72000
O303        O  0.19108409  0.69247851  0.30124272    -0.44800
C304        C  0.14988480  0.67774658  0.16138826     0.76800
O305        O  0.16277149  0.63793153  0.30533239    -0.56700
O306        O  0.13042567  0.67290586  0.19279364    -0.46800
O307        O  0.15449500  0.63141286  0.22370543    -0.53100
C308        C  0.10206805  0.63798100  0.31614346     0.86900
O309        O  0.16645095  0.70985353  0.28381087    -0.55000
O310        O  0.16981929  0.67741907  0.18302185    -0.58300
In311      In  0.33913415  0.85409717  0.26740619     1.36900
C312        C  0.37734635  0.83983638  0.26511955     0.79400
O313        O  0.32131663  0.83416444  0.18986742    -0.59100
O314        O  0.33334212  0.87637029  0.19787700    -0.50000
C315        C  0.29101542  0.81574233  0.30804654     0.72000
O316        O  0.31180027  0.81298759  0.30621193    -0.44800
C317        C  0.36966959  0.90202938  0.31829615     0.76800
O318        O  0.36393705  0.83790336  0.30644445    -0.56700
O319        O  0.37472145  0.89734412  0.27240495    -0.46800
O320        O  0.36998628  0.84758817  0.22495412    -0.53100
C321        C  0.32401195  0.85556807  0.16787008     0.86900
O322        O  0.29557745  0.83925277  0.29317150    -0.55000
O323        O  0.34721031  0.88283925  0.33733469    -0.58300
C324        C  0.45171948  0.00128058  0.43513102    -0.00700
C325        C  0.40088265  0.96253672  0.41449332     0.25400
C326        C  0.42972649  0.97486141  0.40454285    -0.22700
C327        C  0.43727721  0.96401956  0.36119267     0.20300
C328        C  0.41768976  0.94058254  0.33407940     0.25300
C329        C  0.38961478  0.92731052  0.34744622    -0.22700
C330        C  0.38135839  0.93849091  0.38794867     0.20200
F331        F  0.35427012  0.92670637  0.40079907    -0.12600
F332        F  0.39144859  0.97425940  0.44904379    -0.15000
F333        F  0.42653329  0.93065049  0.29460152    -0.15000
F334        F  0.46347670  0.97646597  0.34245704    -0.12600
C335        C  0.21482467  0.76562881  0.29497532     0.25400
C336        C  0.21243990  0.74136805  0.31646257    -0.22700
C337        C  0.23462590  0.74348098  0.34564507     0.20300
C338        C  0.25982362  0.76862339  0.34737865     0.25300
C339        C  0.26311386  0.79214393  0.32059239    -0.22700
C340        C  0.23991142  0.79082416  0.29720690     0.20200
F341        F  0.24220138  0.81315804  0.27148196    -0.12600
F342        F  0.19378832  0.76453208  0.26717334    -0.15000
F343        F  0.28143524  0.76950433  0.37264310    -0.15000
F344        F  0.23242381  0.72085879  0.37008042    -0.12600
C345        C  0.43919314  0.05159128  0.34480752     0.25400
C346        C  0.46068201  0.07782282  0.35948249    -0.22700
C347        C  0.47939824  0.07936159  0.39753756     0.20300
C348        C  0.47658448  0.05529341  0.42054255     0.25300
C349        C  0.45445781  0.02817108  0.40749849    -0.22700
C350        C  0.43614905  0.02737644  0.36744651     0.20200
F351        F  0.41523572  0.00361243  0.34739567    -0.12600
F352        F  0.42103092  0.04909559  0.30706418    -0.15000
F353        F  0.49616110  0.05879829  0.45595629    -0.15000
F354        F  0.50135873  0.10426436  0.41135492    -0.12600
C355        C  0.45019450  0.37954752  0.39165402     0.25400
C356        C  0.45552735  0.38401930  0.33727507    -0.22700
C357        C  0.45901333  0.40857599  0.31487285     0.20300
C358        C  0.45798696  0.42849542  0.34637852     0.25300
C359        C  0.45424553  0.42505049  0.40191421    -0.22700
C360        C  0.44940199  0.39941980  0.42346682     0.20200
F361        F  0.44292331  0.39239863  0.47498384    -0.12600
F362        F  0.44619544  0.35592257  0.41490334    -0.15000
F363        F  0.46194160  0.45199548  0.32265575    -0.15000
F364        F  0.46413378  0.41379599  0.26240402    -0.12600
C365        C  0.44549757  0.23543601  0.29295002     0.25400
C366        C  0.46902942  0.26078325  0.30700982    -0.22700
C367        C  0.49158774  0.26028639  0.32921188     0.20300
C368        C  0.49180684  0.23557395  0.33232352     0.25300
C369        C  0.46941165  0.21063042  0.31350704    -0.22700
C370        C  0.44565742  0.21053537  0.29637464     0.20200
F371        F  0.42338302  0.18677168  0.27901215    -0.12600
F372        F  0.42312389  0.23492620  0.27217571    -0.15000
F373        F  0.51472987  0.23645268  0.35112834    -0.15000
F374        F  0.51422127  0.28404686  0.34556461    -0.12600
C375        C  0.15995791  0.56009487  0.31600829     0.25400
C376        C  0.16675110  0.55063332  0.27029740    -0.22700
C377        C  0.17392128  0.56683826  0.22384432     0.20300
C378        C  0.17275269  0.59111445  0.22242590     0.25300
C379        C  0.16487960  0.59988392  0.26762077    -0.22700
C380        C  0.15903695  0.58445985  0.31463877     0.20200
F381        F  0.15052895  0.59189588  0.35847481    -0.12600
F382        F  0.15253317  0.54495927  0.36137843    -0.15000
F383        F  0.17883581  0.60574057  0.17653695    -0.15000
F384        F  0.18110877  0.55872425  0.17913444    -0.12600
C385        C  0.37988066  0.42619387  0.37960865     0.25400
C386        C  0.38292313  0.45149875  0.36400066    -0.22700
C387        C  0.40873228  0.47561942  0.36894301     0.20300
C388        C  0.43125901  0.47465254  0.38852434     0.25300
C389        C  0.42821122  0.44978306  0.41070068    -0.14300
C390        C  0.40196879  0.42527818  0.40292845     0.20200
F391        F  0.39769979  0.39996573  0.41652864    -0.12600
F392        F  0.35550433  0.40228747  0.37223155    -0.15000
F393        F  0.45605262  0.49781271  0.37958019    -0.15000
F394        F  0.41295877  0.50016547  0.34980051    -0.12600
C395        C  0.25368894  0.47054257  0.34038015     0.25400
C396        C  0.25776072  0.45288876  0.30722573    -0.22700
C397        C  0.23586480  0.43398334  0.27520246     0.20300
C398        C  0.21106221  0.43401618  0.27378131     0.25300
C399        C  0.20764692  0.45295494  0.30445271    -0.22700
C400        C  0.22894738  0.47062029  0.33893790     0.20200
F401        F  0.22637071  0.48893961  0.36966782    -0.12600
F402        F  0.27416048  0.48863899  0.37263531    -0.15000
F403        F  0.19139455  0.41717242  0.23891291    -0.15000
F404        F  0.23930298  0.41719799  0.24155731    -0.12600
C405        C  0.05027799  0.59987348  0.42797999     0.25400
C406        C  0.02700291  0.57920194  0.40009436    -0.22700
C407        C  0.02911058  0.57988698  0.34405830     0.20300
C408        C  0.05278314  0.59960802  0.31748377     0.25300
C409        C  0.07583391  0.61961717  0.34526663    -0.22700
C410        C  0.07416920  0.61977885  0.40079164     0.20200
F411        F  0.09622211  0.63842036  0.42930899    -0.12600
F412        F  0.05145913  0.59988336  0.48136334    -0.15000
F413        F  0.05331457  0.59818761  0.26399576    -0.15000
F414        F  0.00804134  0.56082971  0.31415746    -0.12600
C415        C  0.59455783  0.43995725  0.32853337     0.25400
C416        C  0.61113827  0.45175000  0.28323782    -0.22700
C417        C  0.60323494  0.43675257  0.23576245     0.20300
C418        C  0.57830299  0.41166090  0.23237865     0.25300
C419        C  0.56062089  0.40089895  0.27639995    -0.22700
C420        C  0.56941923  0.41476526  0.32508271     0.20200
F421        F  0.55305781  0.40484551  0.36867562    -0.12600
F422        F  0.60184436  0.45345481  0.37543068    -0.15000
F423        F  0.57114765  0.39832090  0.18532282    -0.15000
F424        F  0.61927918  0.44675348  0.19179442    -0.12600
C425        C  0.92387700  0.52573999  0.38857908     0.25400
C426        C  0.92533196  0.54746098  0.35827983    -0.22700
C427        C  0.95042292  0.57266484  0.35593656     0.20300
C428        C  0.97403822  0.57549173  0.38000218     0.25300
C429        C  0.97388743  0.55233627  0.40389689    -0.22700
C430        C  0.94757353  0.52816468  0.41127750     0.20200
F431        F  0.94449032  0.50593816  0.43829071    -0.12600
F432        F  0.89964466  0.50135706  0.39429497    -0.15000
F433        F  0.99667437  0.60135421  0.38057833    -0.15000
F434        F  0.95210633  0.59487077  0.33076918    -0.12600
C435        C  0.79948046  0.56765676  0.29468767     0.25400
C436        C  0.80022719  0.54474598  0.31534410    -0.22700
C437        C  0.77735204  0.52459443  0.34437718     0.20300
C438        C  0.75332323  0.52587348  0.34833072     0.25300
C439        C  0.75147508  0.54718701  0.32283463    -0.22700
C440        C  0.77529314  0.56883581  0.29827149     0.20200
F441        F  0.77455982  0.58996914  0.27371535    -0.12600
F442        F  0.82126203  0.58769874  0.26695073    -0.15000
F443        F  0.73128609  0.50525188  0.37456992    -0.15000
F444        F  0.77766310  0.50274071  0.36673219    -0.12600
C445        C  0.02656143  0.50307639  0.43916276     0.25400
C446        C  0.00577184  0.47858018  0.41494875    -0.22700
C447        C  0.98972423  0.48292471  0.37666194     0.20300
C448        C  0.98841722  0.50732381  0.37626289     0.25300
C449        C  0.00512933  0.52942030  0.41054085    -0.22700
C450        C  0.02677624  0.52796993  0.43565099     0.20200
F451        F  0.04647572  0.54980505  0.46315870    -0.12600
F452        F  0.04758369  0.50373897  0.46558961    -0.15000
F453        F  0.97142023  0.50921601  0.34103526    -0.15000
F454        F  0.97632690  0.46443860  0.33745953    -0.12600
C455        C  0.06654710  0.47031519  0.32873181     0.25400
C456        C  0.07437561  0.45101855  0.34132775    -0.22700
C457        C  0.06026973  0.43191436  0.38223415     0.20300
C458        C  0.03826163  0.43179047  0.40906977     0.25300
C459        C  0.03014543  0.45148894  0.39695587    -0.22700
C460        C  0.04485662  0.47040118  0.35482805     0.20200
F461        F  0.03814077  0.48870204  0.33566826    -0.12600
F462        F  0.08030427  0.48986072  0.29073612    -0.15000
F463        F  0.02369950  0.41126963  0.44489888    -0.15000
F464        F  0.06698375  0.41261094  0.39486973    -0.12600
C465        C  0.52931898  0.02282452  0.40784498     0.25400
C466        C  0.53191238  0.00196318  0.43409196    -0.22700
C467        C  0.50782740  0.98098368  0.45971533     0.20300
C468        C  0.48293004  0.98070288  0.45896017     0.25300
C469        C  0.48016846  0.00170322  0.43346664    -0.22700
C470        C  0.50363976  0.02089684  0.40297651     0.20200
F471        F  0.50179157  0.03636744  0.36379802    -0.12600
F472        F  0.55122924  0.04563551  0.38643549    -0.15000
F473        F  0.46097588  0.95767206  0.47887419    -0.15000
F474        F  0.50773098  0.95923234  0.48345987    -0.12600
C475        C  0.43531288  0.82966111  0.31110391     0.25400
C476        C  0.45125635  0.83606129  0.26464170    -0.22700
C477        C  0.44080588  0.83996979  0.21727826     0.20300
C478        C  0.41590986  0.83954751  0.21693946     0.25300
C479        C  0.40091994  0.83527223  0.26410803    -0.22700
C480        C  0.41041820  0.82940575  0.31088748     0.20200
F481        F  0.39643960  0.82485849  0.35710817    -0.12600
F482        F  0.44457091  0.82538503  0.35753458    -0.15000
F483        F  0.40725183  0.84468400  0.17064566    -0.15000
F484        F  0.45517455  0.84521301  0.17136082    -0.12600
C485        C  0.53089145  0.93363300  0.35272165     0.25400
C486        C  0.55194490  0.92759847  0.35731151    -0.22700
C487        C  0.57566900  0.94552199  0.38568010     0.20300
C488        C  0.57755409  0.96849057  0.41164222     0.25300
C489        C  0.55553009  0.97395543  0.41023265    -0.22700
C490        C  0.53266185  0.95645487  0.37763953     0.20200
F491        F  0.51269182  0.96205736  0.36515873    -0.12600
F492        F  0.50875314  0.91793096  0.32143283    -0.15000
F493        F  0.60080045  0.98517009  0.43932333    -0.15000
F494        F  0.59664686  0.94043838  0.38945213    -0.12600
C495        C  0.40785772  0.56984445  0.28946139     0.25400
C496        C  0.40591902  0.54754701  0.26055929    -0.22700
C497        C  0.42945374  0.55117941  0.23385568     0.20300
C498        C  0.45422818  0.57652884  0.23553763     0.25300
C499        C  0.45618707  0.59890820  0.26411233    -0.22700
C500        C  0.43276170  0.59523050  0.29140837     0.20200
F501        F  0.43397738  0.61598789  0.32084101    -0.12600
F502        F  0.38587785  0.56697523  0.31704807    -0.15000
F503        F  0.47646581  0.57884078  0.20987838    -0.15000
F504        F  0.42877267  0.53005290  0.20663126    -0.12600
C505        C  0.56959912  0.79614197  0.32520065     0.25400
C506        C  0.54532595  0.79651286  0.33571267    -0.22700
C507        C  0.52167148  0.77193539  0.35278572     0.20300
C508        C  0.52082528  0.74677034  0.35074567     0.25300
C509        C  0.54393258  0.74575882  0.33327768    -0.22700
C510        C  0.56893108  0.77081516  0.32420261     0.20200
F511        F  0.59194213  0.77064223  0.30929447    -0.12600
F512        F  0.59315591  0.81973897  0.31095239    -0.15000
F513        F  0.49659394  0.72315780  0.36188660    -0.15000
F514        F  0.49839651  0.77181719  0.36699458    -0.12600
C515        C  0.50778523  0.52461990  0.46710782     0.25400
C516        C  0.53229926  0.52951479  0.44160926    -0.22700
C517        C  0.53099310  0.50627284  0.41668742     0.20300
C518        C  0.50597561  0.48115517  0.41061108     0.25300
C519        C  0.48087944  0.47691381  0.43273002    -0.22700
C520        C  0.48311096  0.49907262  0.46360704     0.20200
F521        F  0.46080969  0.49604467  0.49030168    -0.12600
F522        F  0.50735818  0.54507447  0.49469444    -0.15000
F523        F  0.50791609  0.46011500  0.38934256    -0.15000
F524        F  0.55405897  0.50618836  0.40216669    -0.12600
C525        C  0.57788496  0.61013271  0.41924523     0.25400
C526        C  0.55557908  0.58206895  0.41869391    -0.22700
C527        C  0.53215766  0.57638792  0.38795921     0.20300
C528        C  0.53033472  0.59771427  0.36399938     0.25300
C529        C  0.55201869  0.62517363  0.36698917    -0.22700
C530        C  0.57601045  0.63133620  0.39384676     0.20200
F531        F  0.59739043  0.65790345  0.39632680    -0.12600
F532        F  0.60141565  0.61717464  0.44573033    -0.15000
F533        F  0.50761871  0.59123273  0.33495433    -0.15000
F534        F  0.51164971  0.55036003  0.37631459    -0.12600
C535        C  0.63080828  0.56741611  0.40897378     0.25400
C536        C  0.62717259  0.56023802  0.35530155    -0.22700
C537        C  0.60316429  0.55611035  0.33036685     0.20300
C538        C  0.58232441  0.55668620  0.35930355     0.25300
C539        C  0.58431596  0.56088065  0.41485919    -0.22700
C540        C  0.61019782  0.56854439  0.43799910     0.20200
F541        F  0.61658146  0.57817454  0.48804080    -0.12600
F542        F  0.65437755  0.57317720  0.43395873    -0.15000
F543        F  0.55917029  0.55123864  0.33306437    -0.15000
F544        F  0.59905405  0.55016527  0.27807689    -0.12600
C545        C  0.83054468  0.40324060  0.28071461     0.25400
C546        C  0.84623146  0.39832614  0.24384723    -0.22700
C547        C  0.86101382  0.41835794  0.20443556     0.20300
C548        C  0.86132500  0.44340080  0.20372695     0.25300
C549        C  0.84695902  0.44895258  0.24257223    -0.22700
C550        C  0.83091135  0.42828939  0.28005900     0.20200
F551        F  0.81667085  0.43281592  0.31805100    -0.12600
F552        F  0.81593098  0.38445738  0.31927457    -0.15000
F553        F  0.87613793  0.46239460  0.16556910    -0.15000
F554        F  0.87579207  0.41408379  0.16722366    -0.12600
C555        C  0.92629043  0.40094066  0.38742432     0.25400
C556        C  0.92656622  0.38097002  0.35490984    -0.22700
C557        C  0.95191695  0.38354306  0.34294027     0.20300
C558        C  0.97653362  0.40545748  0.36276348     0.25300
C559        C  0.97693643  0.42520043  0.39925954    -0.22700
C560        C  0.95076924  0.42282947  0.40784997     0.20200
F561        F  0.94858814  0.44274130  0.43402441    -0.12600
F562        F  0.90238654  0.40046612  0.39709391    -0.15000
F563        F  0.99940147  0.40766198  0.34079861    -0.15000
F564        F  0.95325956  0.36548887  0.30923124    -0.12600
C565        C  0.60553720  0.17267707  0.28669925     0.25400
C566        C  0.60746664  0.15289827  0.25598608    -0.22700
C567        C  0.58535300  0.13526984  0.22308415     0.20300
C568        C  0.56146899  0.13659411  0.22231979     0.25300
C569        C  0.55898506  0.15559656  0.25436225    -0.22700
C570        C  0.58146095  0.17402418  0.28591976     0.20200
F571        F  0.57992884  0.19279766  0.31714623    -0.12600
F572        F  0.62655538  0.19018429  0.31862474    -0.15000
F573        F  0.54043149  0.11850228  0.19106127    -0.15000
F574        F  0.58645190  0.11617610  0.19207491    -0.12600
C575        C  0.60338677  0.04815775  0.32129110     0.25400
C576        C  0.62738100  0.06852083  0.34627246    -0.22700
C577        C  0.63077950  0.06559100  0.40013680     0.20300
C578        C  0.61011875  0.04335765  0.42923160     0.25300
C579        C  0.58408927  0.02461748  0.40615775    -0.22700
C580        C  0.58219844  0.02660599  0.35049440     0.20200
F581        F  0.55891127  0.00857883  0.32427979    -0.12600
F582        F  0.59947154  0.05000214  0.26888637    -0.15000
F583        F  0.61670732  0.04006783  0.47904880    -0.15000
F584        F  0.65441370  0.08420318  0.42479189    -0.12600
C585        C  0.77359231  0.20541972  0.29215264     0.25400
C586        C  0.74967515  0.20213616  0.31664182    -0.22700
C587        C  0.75177217  0.22402362  0.34727236     0.20300
C588        C  0.77637239  0.24965879  0.34813063     0.25300
C589        C  0.79928947  0.25387816  0.31847936    -0.22700
C590        C  0.79824230  0.23109452  0.29317091     0.20200
F591        F  0.82010868  0.23434992  0.26463560    -0.12600
F592        F  0.77254159  0.18471885  0.26278351    -0.15000
F593        F  0.77722002  0.27089477  0.37527625    -0.15000
F594        F  0.72948463  0.22131114  0.37341684    -0.12600
C595        C  0.98922819  0.52861748  0.57107374     0.25400
C596        C  0.99718190  0.55277974  0.60151492    -0.22700
C597        C  0.99866843  0.57534234  0.57304307     0.20300
C598        C  0.99926753  0.57594635  0.51690409     0.25300
C599        C  0.99766403  0.55367416  0.48754863    -0.22700
C600        C  0.98910019  0.52897779  0.51684492     0.20200
F601        F  0.97905235  0.50374043  0.49416110    -0.12600
F602        F  0.97925499  0.50300798  0.59248315    -0.15000
F603        F  0.00200923  0.59853768  0.49151243    -0.15000
F604        F  0.00013610  0.59706681  0.59935589    -0.12600
C605        C  0.70320376  0.53596677  0.03698908     0.25400
C606        C  0.69180730  0.54900437  0.00782571    -0.22700
C607        C  0.68322958  0.56518561  0.03500203     0.20300
C608        C  0.68377432  0.56616416  0.09050639     0.25300
C609        C  0.69262144  0.55074947  0.11960891    -0.22700
C610        C  0.70348019  0.53670423  0.09209649     0.20200
F611        F  0.71352121  0.52271352  0.11857039    -0.12600
F612        F  0.71320571  0.52150460  0.01221947    -0.15000
F613        F  0.67388293  0.58061395  0.11566077    -0.15000
F614        F  0.67255606  0.57849724  0.00825786    -0.12600
C615        C  0.83046722  0.52394260  0.01859986     0.25400
C616        C  0.85479670  0.53938687  0.98870994    -0.22700
C617        C  0.87936383  0.55787372  0.01516085     0.20300
C618        C  0.88008875  0.55881466  0.07056000     0.25300
C619        C  0.85621164  0.54140419  0.10043385    -0.22700
C620        C  0.83117933  0.52485292  0.07367555     0.20200
F621        F  0.80737515  0.50849542  0.10073621    -0.12600
F622        F  0.80596904  0.50701638  0.99471769    -0.15000
F623        F  0.90450133  0.57560497  0.09476232    -0.15000
F624        F  0.90305900  0.57396892  0.98767000    -0.12600
C625        C  0.92173240  0.52479065  0.69672303     0.25400
C626        C  0.92328685  0.54420174  0.73350071    -0.22700
C627        C  0.94882795  0.56841443  0.74107819     0.20300
C628        C  0.97259703  0.57217163  0.71558772     0.25300
C629        C  0.97219259  0.55045950  0.68537492    -0.22700
C630        C  0.94558149  0.52801072  0.67257362     0.20200
F631        F  0.94231195  0.50794151  0.63884165    -0.12600
F632        F  0.89716238  0.50168058  0.68592617    -0.15000
F633        F  0.99549586  0.59772914  0.71954716    -0.15000
F634        F  0.95084658  0.58884884  0.77272475    -0.12600
C635        C  0.74497999  0.51518478  0.76694807     0.25400
C636        C  0.74476187  0.53722326  0.79290176    -0.22700
C637        C  0.77007694  0.56004409  0.80911097     0.20300
C638        C  0.79447534  0.55925891  0.80531386     0.25300
C639        C  0.79399833  0.53569271  0.78497601    -0.22700
C640        C  0.76935055  0.51450139  0.76281586     0.20200
F641        F  0.76846505  0.49229919  0.73959084    -0.12600
F642        F  0.72129490  0.49351262  0.74784242    -0.15000
F643        F  0.81800591  0.58052143  0.82580702    -0.15000
F644        F  0.77093726  0.58212318  0.83277004    -0.12600
C645        C  0.42672509  0.42801765  0.58251144     0.25400
C646        C  0.45228477  0.44368589  0.60859108    -0.22700
C647        C  0.47598907  0.45230599  0.57645390     0.20300
C648        C  0.47354095  0.44594126  0.52333942     0.25300
C649        C  0.44955503  0.44036664  0.49557619    -0.22700
C650        C  0.42532863  0.43013750  0.52720371     0.20200
F651        F  0.40020746  0.42152013  0.50666905    -0.12600
F652        F  0.40292019  0.41279667  0.61021912    -0.15000
F653        F  0.49618859  0.44906887  0.49809956    -0.15000
F654        F  0.50213093  0.46830678  0.59418308    -0.12600
C655        C  0.44508757  0.12232015  0.02750046     0.25400
C656        C  0.46424085  0.14533659  0.99724058    -0.22700
C657        C  0.48233954  0.17023360  0.02337276     0.20300
C658        C  0.48316585  0.17133175  0.07839038     0.25300
C659        C  0.46575947  0.14763134  0.10888924    -0.22700
C660        C  0.44580654  0.12346955  0.08289688     0.20200
F661        F  0.42789516  0.10047744  0.11086653    -0.12600
F662        F  0.42655963  0.09826692  0.00371022    -0.15000
F663        F  0.50186117  0.19550238  0.10165445    -0.15000
F664        F  0.50013021  0.19346626  0.99578891    -0.12600
C665        C  0.56355218  0.40886506  0.89235400     0.25400
C666        C  0.55536806  0.39388447  0.84489117    -0.22700
C667        C  0.57338060  0.40385379  0.80119402     0.20300
C668        C  0.59820484  0.42928710  0.80377092     0.25300
C669        C  0.60567063  0.44511716  0.85031714    -0.22700
C670        C  0.58851582  0.43412307  0.89518074     0.20200
F671        F  0.59525777  0.44827832  0.94136856    -0.12600
F672        F  0.54714486  0.39931769  0.93594082    -0.15000
F673        F  0.61449149  0.43875419  0.76004759    -0.15000
F674        F  0.56632892  0.38977388  0.75492324    -0.12600
C675        C  0.47509507  0.30476639  0.01685352     0.25400
C676        C  0.45967957  0.31331663  0.98729526    -0.22700
C677        C  0.44340052  0.32178242  0.01440772     0.20300
C678        C  0.44447722  0.32388619  0.06975700     0.25300
C679        C  0.46191427  0.31765980  0.09858847    -0.22700
C680        C  0.47627198  0.30702365  0.07165682     0.20200
F681        F  0.49221831  0.29944657  0.09834158    -0.12600
F682        F  0.49012808  0.29525370  0.99270869    -0.15000
F683        F  0.42986751  0.33366068  0.09462354    -0.15000
F684        F  0.42759305  0.32941059  0.98738677    -0.12600
C685        C  0.47854163  0.39548207  0.70391698     0.25400
C686        C  0.45647445  0.37512098  0.73375322    -0.22700
C687        C  0.43254953  0.37662774  0.73827418     0.20300
C688        C  0.43131645  0.39888080  0.71565674     0.25300
C689        C  0.45495725  0.42175070  0.69131950    -0.22700
C690        C  0.47776843  0.41799710  0.68278751     0.20200
F691        F  0.50097351  0.43706526  0.65782202    -0.12600
F692        F  0.50210527  0.39481901  0.69775263    -0.15000
F693        F  0.40653175  0.39727125  0.71705024    -0.15000
F694        F  0.41013957  0.35639384  0.76430293    -0.12600
C695        C  0.47920990  0.22163407  0.75534545     0.25400
C696        C  0.46011477  0.19928987  0.78705241    -0.22700
C697        C  0.43887837  0.20124151  0.81229575     0.20300
C698        C  0.43837125  0.22593941  0.80983440     0.25300
C699        C  0.45918167  0.24914999  0.78246689    -0.22700
C700        C  0.47869438  0.24624916  0.75301921     0.20200
F701        F  0.49832814  0.26786847  0.72422396    -0.12600
F702        F  0.49952834  0.22038619  0.72905833    -0.15000
F703        F  0.41909687  0.22792981  0.83846062    -0.15000
F704        F  0.41999587  0.18020201  0.84322249    -0.12600
C705        C  0.11882276  0.43609729  0.01895545     0.25400
C706        C  0.14406730  0.45102008  0.99140724    -0.22700
C707        C  0.16865165  0.46504736  0.02045991     0.20300
C708        C  0.16798269  0.46567969  0.07542422     0.25300
C709        C  0.14274969  0.45229457  0.10304007    -0.22700
C710        C  0.11815897  0.43675763  0.07446571     0.20200
F711        F  0.09343078  0.42378623  0.09984107    -0.12600
F712        F  0.09469769  0.42239787  0.99219886    -0.15000
F713        F  0.19222354  0.48007751  0.10169618    -0.15000
F714        F  0.19352465  0.47896351  0.99564377    -0.12600
C715        C  0.33781885  0.44553832  0.07849405     0.25400
C716        C  0.32479709  0.45704187  0.10739392    -0.22700
C717        C  0.31134185  0.46848251  0.07990800     0.20300
C718        C  0.31267219  0.47038167  0.02491151     0.25300
C719        C  0.32729069  0.46064913  0.99600621    -0.22700
C720        C  0.33921445  0.44749152  0.02316981     0.20200
F721        F  0.35381208  0.43822174  0.99659090    -0.12600
F722        F  0.35073313  0.43403982  0.10378918    -0.15000
F723        F  0.30011871  0.48238129  0.00002122    -0.15000
F724        F  0.29729606  0.47841636  0.10641824    -0.12600
C725        C  0.41082744  0.45349063  0.78191938     0.25400
C726        C  0.39125761  0.45731302  0.75529142    -0.22700
C727        C  0.39301772  0.45977201  0.70005702     0.20300
C728        C  0.41332666  0.45782845  0.67187842     0.25300
C729        C  0.43194081  0.45163944  0.69780254    -0.22700
C730        C  0.43105528  0.45132154  0.75396005     0.20200
F731        F  0.44976142  0.44845975  0.78244103    -0.12600
F732        F  0.41082288  0.45228452  0.83548292    -0.15000
F733        F  0.41526556  0.46407820  0.61978396    -0.15000
F734        F  0.37587142  0.46557031  0.67285732    -0.12600
C735        C  0.25712923  0.47302931  0.75865985     0.25400
C736        C  0.26170641  0.45613073  0.79310316    -0.22700
C737        C  0.23930301  0.43548717  0.82255845     0.20300
C738        C  0.21358034  0.43373041  0.82143026     0.25300
C739        C  0.20988799  0.45255596  0.79076276    -0.22700
C740        C  0.23153040  0.47125831  0.75746995     0.20200
F741        F  0.22839357  0.48896165  0.72571638    -0.12600
F742        F  0.27793110  0.49236630  0.72797467    -0.15000
F743        F  0.19319861  0.41537235  0.85410175    -0.15000
F744        F  0.24292237  0.41873854  0.85616475    -0.12600
C745        C  0.45577655  0.02263889  0.58252801     0.25400
C746        C  0.44208597  0.99747813  0.61119405    -0.22700
C747        C  0.42700660  0.97314543  0.58064281     0.20300
C748        C  0.42873532  0.97398922  0.52522753     0.25300
C749        C  0.44325029  0.99954604  0.49619505    -0.22700
C750        C  0.45252535  0.02346085  0.52808989     0.20200
F751        F  0.45421950  0.04693983  0.51010755    -0.12600
F752        F  0.47143670  0.04722247  0.60734522    -0.15000
F753        F  0.41586019  0.94888268  0.50138441    -0.15000
F754        F  0.41253034  0.94765164  0.60332947    -0.12600
C755        C  0.45728419  0.02462244  0.75763833     0.25400
C756        C  0.44723610  0.01977919  0.70504118    -0.22700
C757        C  0.43401612  0.03435494  0.68854651     0.20300
C758        C  0.43588899  0.05620238  0.71865334     0.25300
C759        C  0.44916530  0.06297046  0.76778418    -0.22700
C760        C  0.45828031  0.04578655  0.78819373     0.20200
F761        F  0.46943285  0.05012757  0.83717211    -0.12600
F762        F  0.46783085  0.00990945  0.77904599    -0.15000
F763        F  0.42478204  0.07087685  0.69928996    -0.15000
F764        F  0.41891606  0.02768821  0.64370775    -0.12600
C765        C  0.33215737  0.88053057  0.02587732     0.25400
C766        C  0.31840578  0.85508444  0.99889759    -0.22700
C767        C  0.30252727  0.83053835  0.02826789     0.20300
C768        C  0.30260921  0.83106054  0.08344128     0.25300
C769        C  0.31854561  0.85615429  0.11065571    -0.22700
C770        C  0.33214346  0.88107075  0.08135824     0.20200
F771        F  0.34717771  0.90577812  0.10617929    -0.12600
F772        F  0.34738785  0.90469809  0.99885420    -0.15000
F773        F  0.28794636  0.80672488  0.11024666    -0.15000
F774        F  0.28773270  0.80573695  0.00359377    -0.12600
C775        C  0.41563421  0.93203169  0.76399355     0.25400
C776        C  0.38748444  0.92292657  0.76081447    -0.22700
C777        C  0.37914517  0.93742485  0.72808786     0.20300
C778        C  0.39867155  0.96060390  0.69895483     0.25300
C779        C  0.42724584  0.96968112  0.70051529    -0.22700
C780        C  0.43515667  0.95505414  0.73537756     0.20200
F781        F  0.46182992  0.96351060  0.74555562    -0.12600
F782        F  0.42460331  0.91856528  0.79525454    -0.15000
F783        F  0.38944403  0.97410022  0.66867680    -0.15000
F784        F  0.35213377  0.92967584  0.72537729    -0.12600
C785        C  0.16695538  0.58692426  0.87240065     0.25400
C786        C  0.16234373  0.59718607  0.82526188    -0.22700
C787        C  0.16033187  0.58348106  0.77756541     0.20300
C788        C  0.16145981  0.55913432  0.77754192     0.25300
C789        C  0.16467696  0.54813674  0.82519226    -0.22700
C790        C  0.16806222  0.56267276  0.87240569     0.20200
F791        F  0.17158664  0.55297370  0.91911821    -0.12600
F792        F  0.16977428  0.60001520  0.91898621    -0.15000
F793        F  0.15757064  0.54541022  0.73136590    -0.15000
F794        F  0.15555845  0.59261644  0.73138769    -0.12600
C795        C  0.17346337  0.69335805  0.07327296     0.25400
C796        C  0.14899266  0.68154632  0.10334260    -0.22700
C797        C  0.12367003  0.67046235  0.07663340     0.20300
C798        C  0.12275370  0.66908470  0.02116613     0.25300
C799        C  0.14718181  0.67908686  0.99132736    -0.22700
C800        C  0.17257686  0.69217144  0.01806330     0.20200
F801        F  0.19671471  0.70319715  0.99081878    -0.12600
F802        F  0.19839351  0.70546686  0.09735900    -0.15000
F803        F  0.09783376  0.65632858  0.99702834    -0.15000
F804        F  0.09961503  0.65926926  0.10416879    -0.12600
C805        C  0.07050313  0.61951724  0.69403148     0.25400
C806        C  0.07205390  0.61679220  0.74903764    -0.22700
C807        C  0.04972554  0.59432909  0.77478523     0.20300
C808        C  0.02695117  0.57470178  0.74657418     0.25300
C809        C  0.02508452  0.57649080  0.69083927    -0.22700
C810        C  0.04770672  0.59949554  0.66505093     0.20200
F811        F  0.04938855  0.60213890  0.61185681    -0.12600
F812        F  0.09168929  0.64097172  0.66757674    -0.15000
F813        F  0.00638400  0.55333390  0.77437767    -0.15000
F814        F  0.05006054  0.59063679  0.82774938    -0.12600
C815        C  0.25767972  0.76561740  0.75925706     0.25400
C816        C  0.25998078  0.78876643  0.78550344    -0.22700
C817        C  0.23594690  0.78717390  0.80556398     0.20300
C818        C  0.21072687  0.76203934  0.80467466     0.25300
C819        C  0.20911585  0.73807783  0.78366897    -0.22700
C820        C  0.23250407  0.74052897  0.75834992     0.20200
F821        F  0.23151585  0.71818816  0.73552790    -0.12600
F822        F  0.28017843  0.76666938  0.73732989    -0.15000
F823        F  0.18855431  0.76067211  0.82873960    -0.15000
F824        F  0.23724797  0.80916320  0.83053076    -0.12600
C825        C  0.52909836  0.50578731  0.71183920     0.25400
C826        C  0.53256370  0.52981212  0.68537156    -0.22700
C827        C  0.50936884  0.52631996  0.65710551     0.20300
C828        C  0.48502788  0.50073079  0.65395813     0.25300
C829        C  0.48153616  0.47691922  0.68070258    -0.22700
C830        C  0.50340357  0.48101187  0.71383074     0.20200
F831        F  0.50061673  0.46120710  0.74829238    -0.12600
F832        F  0.55038519  0.50477312  0.73367578    -0.15000
F833        F  0.46528846  0.49926478  0.62168220    -0.15000
F834        F  0.51009978  0.54799165  0.63164452    -0.12600
C835        C  0.56805988  0.54383770  0.59153998     0.25400
C836        C  0.56569654  0.56384870  0.62141405    -0.22700
C837        C  0.56317513  0.58405406  0.59203357     0.20300
C838        C  0.56179634  0.58337234  0.53674655     0.25300
C839        C  0.56422505  0.56330583  0.50693906    -0.22700
C840        C  0.56757458  0.54372039  0.53627857     0.20200
F841        F  0.56936964  0.52338301  0.51115546    -0.12600
F842        F  0.56963507  0.52320541  0.61627961    -0.15000
F843        F  0.55472376  0.60076430  0.51428307    -0.15000
F844        F  0.55825306  0.60273074  0.61554777    -0.12600
C845        C  0.58208866  0.55510391  0.76894644     0.25400
C846        C  0.58438006  0.55924930  0.71332899    -0.22700
C847        C  0.60986499  0.56533067  0.68995139     0.20300
C848        C  0.62923888  0.56203042  0.71860519     0.25300
C849        C  0.62506325  0.55481438  0.77242111    -0.22700
C850        C  0.60190019  0.55276827  0.79769037     0.20200
F851        F  0.59762385  0.54733019  0.85026119    -0.12600
F852        F  0.55936378  0.55108029  0.79537598    -0.15000
F853        F  0.65208156  0.56572261  0.69314940    -0.15000
F854        F  0.61707606  0.57543921  0.64010270    -0.12600
C855        C  0.50271098  0.02590725  0.68282243     0.25400
C856        C  0.47815491  0.00108357  0.66886730    -0.22700
C857        C  0.48156381  0.97969328  0.64773012     0.20300
C858        C  0.50689689  0.98114225  0.64860093     0.25300
C859        C  0.53066969  0.00412408  0.67039618    -0.22700
C860        C  0.52829288  0.02731133  0.68418319     0.20200
F861        F  0.55069782  0.05219931  0.69609858    -0.12600
F862        F  0.50276840  0.04965625  0.69264180    -0.15000
F863        F  0.50752337  0.95867442  0.63107824    -0.15000
F864        F  0.45975368  0.95577928  0.63002148    -0.12600
C865        C  0.56051092  0.97881562  0.52887328     0.25400
C866        C  0.56424511  0.00169681  0.49801981    -0.22700
C867        C  0.56842479  0.02530865  0.52593655     0.20300
C868        C  0.56912926  0.02627239  0.58089032     0.25300
C869        C  0.56433448  0.00317289  0.61196861    -0.22700
C870        C  0.56028569  0.97944083  0.58420184     0.20200
F871        F  0.55254735  0.95510127  0.60906395    -0.12600
F872        F  0.55336692  0.95404093  0.50701018    -0.15000
F873        F  0.57297456  0.04975899  0.60393611    -0.15000
F874        F  0.57097957  0.04762438  0.49957802    -0.12600
C875        C  0.42913123  0.82243858  0.88241784     0.25400
C876        C  0.44525440  0.82947947  0.83607841    -0.22700
C877        C  0.43412437  0.83216856  0.78836512     0.20300
C878        C  0.40857542  0.83047677  0.78787548     0.25300
C879        C  0.39382887  0.82638530  0.83524175    -0.22700
C880        C  0.40360228  0.82082834  0.88192784     0.20200
F881        F  0.38913181  0.81521059  0.92781535    -0.12600
F882        F  0.43865019  0.81853860  0.92886392    -0.15000
F883        F  0.39943614  0.83508744  0.74164872    -0.15000
F884        F  0.44891020  0.83876988  0.74273518    -0.12600
C885        C  0.53840896  0.83786454  0.03011871     0.25400
C886        C  0.54755503  0.86285235  0.00227212    -0.22700
C887        C  0.55905701  0.88781321  0.03071504     0.20300
C888        C  0.55969583  0.88751881  0.08606790     0.25300
C889        C  0.54919433  0.86228452  0.11394076    -0.22700
C890        C  0.53934772  0.83760279  0.08513548     0.20200
F891        F  0.52947970  0.81283426  0.11015461    -0.12600
F892        F  0.52755487  0.81332249  0.00430688    -0.15000
F893        F  0.56923202  0.91178782  0.11224593    -0.15000
F894        F  0.56832453  0.91237439  0.00526586    -0.12600
C895        C  0.57529136  0.97087422  0.70405667     0.25400
C896        C  0.55413073  0.97751814  0.70401622    -0.22700
C897        C  0.53152607  0.96189649  0.73908566     0.20300
C898        C  0.52904985  0.93959466  0.76790731     0.25300
C899        C  0.54915530  0.93209908  0.76464377    -0.22700
C900        C  0.57241893  0.94801337  0.73263379     0.20200
F901        F  0.59265132  0.94179980  0.72966632    -0.12600
F902        F  0.59852478  0.98602705  0.67477800    -0.15000
F903        F  0.50642671  0.92512119  0.79923476    -0.15000
F904        F  0.51221428  0.96873524  0.74929789    -0.12600
C905        C  0.43688052  0.60246057  0.88107071     0.25400
C906        C  0.45244616  0.61391053  0.83464211    -0.22700
C907        C  0.44176455  0.60033086  0.78632480     0.20300
C908        C  0.41692895  0.57481521  0.78514693     0.25300
C909        C  0.40255372  0.56231919  0.83233738    -0.22700
C910        C  0.41232374  0.57690469  0.88000968     0.20200
F911        F  0.39879737  0.56593655  0.92629577    -0.12600
F912        F  0.44598154  0.61541224  0.92820555    -0.15000
F913        F  0.40790769  0.56164919  0.73819318    -0.15000
F914        F  0.45618404  0.61072921  0.74065892    -0.12600
C915        C  0.56471685  0.68232581  0.03361867     0.25400
C916        C  0.54922569  0.69135693  0.00562035    -0.22700
C917        C  0.53501514  0.70173742  0.03416576     0.20300
C918        C  0.53470574  0.70124326  0.08930275     0.25300
C919        C  0.54853963  0.69034645  0.11724423    -0.22700
C920        C  0.56439806  0.68185195  0.08896993     0.20200
F921        F  0.57806614  0.67128229  0.11466176    -0.12600
F922        F  0.57879400  0.67229693  0.00760319    -0.15000
F923        F  0.52011978  0.71071661  0.11535023    -0.15000
F924        F  0.52051947  0.71151108  0.00885215    -0.12600
C925        C  0.57837877  0.63090632  0.73922281     0.25400
C926        C  0.55431540  0.62486478  0.76648808    -0.22700
C927        C  0.53167387  0.59777488  0.76554800     0.20300
C928        C  0.53296001  0.57666748  0.73956384     0.25300
C929        C  0.55688009  0.58212306  0.71036859    -0.22700
C930        C  0.57980494  0.60984442  0.71206197     0.20200
F931        F  0.60374968  0.61659250  0.68701748    -0.12600
F932        F  0.60080613  0.65691499  0.74034045    -0.15000
F933        F  0.51103228  0.55082792  0.74744113    -0.15000
F934        F  0.50779507  0.59147364  0.79053704    -0.12600
C935        C  0.57017849  0.80110372  0.82546707     0.25400
C936        C  0.55025021  0.80295890  0.79539934    -0.22700
C937        C  0.53264348  0.78065574  0.76269791     0.20300
C938        C  0.53317656  0.75606617  0.76382247     0.25300
C939        C  0.55135627  0.75328531  0.79753125    -0.22700
C940        C  0.57072822  0.77645246  0.82654175     0.20200
F941        F  0.58828892  0.77441289  0.86017305    -0.12600
F942        F  0.58724480  0.82202721  0.85813419    -0.15000
F943        F  0.51463847  0.73433008  0.73434469    -0.15000
F944        F  0.51361134  0.78193877  0.73216134    -0.12600
C945        C  0.83567921  0.39834094  0.81199398     0.25400
C946        C  0.85161417  0.39489233  0.85050060    -0.22700
C947        C  0.86312495  0.41437667  0.89153937     0.20300
C948        C  0.86067551  0.43791903  0.89160892     0.25300
C949        C  0.84660367  0.44250170  0.85071954    -0.22700
C950        C  0.83320882  0.42189967  0.81208181     0.20200
F951        F  0.81872730  0.42505919  0.77281312    -0.12600
F952        F  0.82323328  0.37943223  0.77298807    -0.15000
F953        F  0.87279308  0.45659141  0.93110421    -0.15000
F954        F  0.87743690  0.41111945  0.93106079    -0.12600
C955        C  0.83593084  0.30026073  0.02254601     0.25400
C956        C  0.86121204  0.30919244  0.99652349    -0.22700
C957        C  0.88484477  0.31707527  0.02711147     0.20300
C958        C  0.88374930  0.31871051  0.08224766     0.25300
C959        C  0.85893072  0.31226766  0.10778448    -0.22700
C960        C  0.83481965  0.30190330  0.07744014     0.20200
F961        F  0.81021628  0.29443413  0.10051686    -0.12600
F962        F  0.81231652  0.29099646  0.99469864    -0.15000
F963        F  0.90736320  0.32814144  0.11014856    -0.15000
F964        F  0.90945304  0.32502379  0.00361157    -0.12600
C965        C  0.60085721  0.16978872  0.87423994     0.25400
C966        C  0.61160717  0.16581527  0.82704577    -0.22700
C967        C  0.59705392  0.16200185  0.77975212     0.20300
C968        C  0.57137760  0.16018228  0.78029625     0.25300
C969        C  0.55980107  0.16224595  0.82809703    -0.22700
C970        C  0.57533235  0.16815337  0.87470216     0.20200
F971        F  0.56545241  0.17147375  0.92133347    -0.12600
F972        F  0.61445891  0.17415226  0.92063474    -0.15000
F973        F  0.55721015  0.15478937  0.73440489    -0.15000
F974        F  0.60684520  0.15840589  0.73330196    -0.12600
C975        C  0.68523036  0.12465315  0.01901950     0.25400
C976        C  0.69129875  0.14914368  0.99205276    -0.22700
C977        C  0.69902857  0.17325884  0.02152900     0.20300
C978        C  0.69893616  0.17246706  0.07658603     0.25300
C979        C  0.69138393  0.14764402  0.10360107    -0.22700
C980        C  0.68535574  0.12394373  0.07434557     0.20200
F981        F  0.67777106  0.09956895  0.09916073    -0.12600
F982        F  0.67765931  0.10095075  0.99213238    -0.15000
F983        F  0.70548448  0.19593184  0.10347446    -0.15000
F984        F  0.70576511  0.19755120  0.99725626    -0.12600
C985        C  0.62994065  0.06710659  0.71040319     0.25400
C986        C  0.62459909  0.07311810  0.76128250    -0.22700
C987        C  0.59863524  0.05527202  0.78413046     0.20300
C988        C  0.57792208  0.03326188  0.75550349     0.25300
C989        C  0.58209348  0.02828758  0.70232855    -0.22700
C990        C  0.60934304  0.04478649  0.68171874     0.20200
F991        F  0.61692401  0.03914845  0.63472092    -0.12600
F992        F  0.65529322  0.08281288  0.68813414    -0.15000
F993        F  0.55314484  0.01747260  0.77965798    -0.15000
F994        F  0.59271199  0.05956322  0.83396124    -0.12600
C995        C  0.75689067  0.23390907  0.75868251     0.25400
C996        C  0.75291009  0.20914553  0.78117017    -0.22700
C997        C  0.77626320  0.20821055  0.79753774     0.20300
C998        C  0.80245805  0.23232522  0.79720258     0.25300
C999        C  0.80576709  0.25779412  0.78055652    -0.22700
C1000       C  0.78302645  0.25788779  0.75804757     0.20200
F1001       F  0.78554823  0.28169873  0.73883911    -0.12600
F1002       F  0.73519784  0.23558832  0.74051461    -0.15000
F1003       F  0.82410516  0.23107674  0.81699601    -0.15000
F1004       F  0.77355965  0.18451327  0.81770004    -0.12600
C1005       C  0.02812700  0.50289834  0.65418510     0.25400
C1006       C  0.00700394  0.47720192  0.67484266    -0.22700
C1007       C  0.98421812  0.47746836  0.69891743     0.20300
C1008       C  0.98348109  0.50209618  0.70375331     0.25300
C1009       C  0.00305329  0.52670033  0.67736263    -0.22700
C1010       C  0.02639750  0.52683446  0.65584701     0.20200
F1011       F  0.04680911  0.54982439  0.63142670    -0.12600
F1012       F  0.05088309  0.50504643  0.63130174    -0.15000
F1013       F  0.96279814  0.50097917  0.73291403    -0.15000
F1014       F  0.96112853  0.45386568  0.71448342    -0.12600
C1015       C  0.03024798  0.45489192  0.51625186     0.25400
C1016       C  0.00505673  0.44605924  0.48811315    -0.22700
C1017       C  0.98160511  0.43662939  0.52223163     0.20300
C1018       C  0.98386625  0.44041541  0.57712737     0.25300
C1019       C  0.00824957  0.44738394  0.60428201    -0.22700
C1020       C  0.03154756  0.45457812  0.57191241     0.20200
F1021       F  0.05684102  0.46407634  0.59308990    -0.12600
F1022       F  0.05486323  0.46532348  0.49111653    -0.15000
F1023       F  0.96083716  0.43483271  0.60450823    -0.15000
F1024       F  0.95551086  0.42000220  0.50625947    -0.12600
C1025       C  0.04128424  0.43101096  0.68335737     0.25400
C1026       C  0.03584003  0.45294023  0.69098429    -0.22700
C1027       C  0.05290032  0.47379620  0.72782188     0.20300
C1028       C  0.07386857  0.47269881  0.75459780     0.25300
C1029       C  0.07857650  0.45074943  0.74724186    -0.22700
C1030       C  0.06250099  0.43014450  0.71064754     0.20200
F1031       F  0.06644493  0.40850567  0.70302954    -0.12600
F1032       F  0.02549294  0.40984462  0.65012436    -0.15000
F1033       F  0.08970670  0.49342745  0.78874749    -0.15000
F1034       F  0.04840939  0.49431612  0.74257545    -0.12600
C1035       C  0.94601492  0.37662840  0.70241186     0.25400
C1036       C  0.94254493  0.37981607  0.75635506    -0.22700
C1037       C  0.96242504  0.40416493  0.78133605     0.20300
C1038       C  0.98356935  0.42588266  0.75231730     0.25300
C1039       C  0.98573119  0.42442876  0.69656993    -0.22700
C1040       C  0.96776516  0.39812749  0.67325187     0.20200
F1041       F  0.97139336  0.39224281  0.62307575    -0.12600
F1042       F  0.92843902  0.35248797  0.67773828    -0.15000
F1043       F  0.00085044  0.44940657  0.77888250    -0.15000
F1044       F  0.96059549  0.40788619  0.83382376    -0.12600
loop_ 
_geom_bond_atom_site_label_1 
_geom_bond_atom_site_label_2 
_geom_bond_distance 
_geom_bond_site_symmetry_2 
_ccdc_geom_bond_type 
C1         C1006   1.583       .  S
C1         C1019   1.580       .  S
C1         C1026   1.571       .  S
C1         C1039   1.574   1_455  S
In2           O4   2.268       .  S
In2           O5   2.238       .  S
In2          O13   2.260       .  S
In2           O7   2.245       .  S
In2           O9   2.257       .  S
In2          O10   2.259       .  S
In2          O11   2.237       .  S
In2          O14   2.219       .  S
C3            O9   1.261       .  A
C3           O11   1.258       .  A
C3          C966   1.483       .  S
O4           C12   1.263       .  A
O5           C12   1.258       .  A
C6           O13   1.262       .  A
C6            O7   1.261       .  A
C6          C996   1.488       .  S
C8           O10   1.265       .  A
C8           O14   1.260       .  A
C8          C976   1.482       .  S
C12         C986   1.488       .  S
In15         O17   2.226       .  S
In15         O18   2.270       .  S
In15         O26   2.265       .  S
In15         O20   2.217       .  S
In15         O22   2.254       .  S
In15         O23   2.250       .  S
In15         O24   2.246       .  S
In15         O27   2.278       .  S
C16          O22   1.259       .  A
C16          O24   1.258       .  A
C16         C946   1.483       .  S
O17          C25   1.259       .  A
O18          C25   1.265       .  A
C19          O26   1.267       .  A
C19          O20   1.259       .  A
C19         C999   1.486       .  S
C21          O23   1.257       .  A
C21          O27   1.259       .  A
C21        C1036   1.489       .  S
C25         C956   1.484       .  S
In28         O30   2.287       .  S
In28         O31   2.218       .  S
In28         O39   2.256       .  S
In28         O33   2.223       .  S
In28         O35   2.256       .  S
In28         O36   2.262       .  S
In28         O37   2.225       .  S
In28         O40   2.226       .  S
C29          O35   1.262       .  A
C29          O37   1.259       .  A
C29         C906   1.478       .  S
O30          C38   1.263       .  A
O31          C38   1.256       .  A
C32          O39   1.263       .  A
C32          O33   1.260       .  A
C32         C939   1.479       .  S
C34          O36   1.265       .  A
C34          O40   1.259       .  A
C34         C916   1.483   1_556  S
C38         C926   1.478       .  S
In41         O43   2.221       .  S
In41         O44   2.263       .  S
In41         O52   2.251       .  S
In41         O46   2.229       .  S
In41         O48   2.245       .  S
In41         O49   2.214       .  S
In41         O50   2.240       .  S
In41         O53   2.285       .  S
C42          O48   1.262       .  A
C42          O50   1.259       .  A
C42         C876   1.479       .  S
O43          C51   1.259       .  A
O44          C51   1.263       .  A
C45          O52   1.263       .  A
C45          O46   1.260       .  A
C45         C936   1.479       .  S
C47          O49   1.256       .  A
C47          O53   1.263       .  A
C47         C899   1.482       .  S
C51         C886   1.482   1_556  S
C54         C859   1.571       .  S
C54         C869   1.567       .  S
C54         C896   1.569   1_545  S
C54         C989   1.565       .  S
C55         C826   1.578       .  S
C55         C836   1.576       .  S
C55         C846   1.570       .  S
C55         C929   1.573       .  S
In56         O58   2.237       .  S
In56         O59   2.278       .  S
In56         O67   2.257       .  S
In56         O61   2.230       .  S
In56         O63   2.261       .  S
In56         O64   2.235       .  S
In56         O65   2.235       .  S
In56         O68   2.280       .  S
C57          O63   1.260       .  A
C57          O65   1.258       .  A
C57         C786   1.478       .  S
O58          C66   1.260       .  A
O59          C66   1.266       .  A
C60          O67   1.264       .  A
C60          O61   1.260       .  A
C60         C819   1.483       .  S
C62          O64   1.259       .  A
C62          O68   1.261       .  A
C62         C806   1.491       .  S
C66         C799   1.490       .  S
In69         O71   2.278       .  S
In69         O72   2.223       .  S
In69         O80   2.257       .  S
In69         O74   2.232       .  S
In69         O76   2.242       .  S
In69         O77   2.273       .  S
In69         O78   2.238       .  S
In69         O81   2.233       .  S
C70          O76   1.261       .  A
C70          O78   1.261       .  A
C70         C879   1.479       .  S
O71          C79   1.263       .  A
O72          C79   1.257       .  A
C73          O80   1.263       .  A
C73          O74   1.258       .  A
C73         C816   1.481       .  S
C75          O77   1.263       .  A
C75          O81   1.259       .  A
C75         C766   1.485       .  S
C79         C776   1.481       .  S
C82         C746   1.568       .  S
C82         C756   1.571   1_565  S
C82         C779   1.566       .  S
C82         C856   1.570   1_565  S
In83         O85   2.220       .  S
In83         O86   2.258       .  S
In83         O94   2.273       .  S
In83         O88   2.239       .  S
In83         O90   2.261       .  S
In83         O91   2.252       .  S
In83         O92   2.236       .  S
In83         O95   2.253       .  S
C84          O90   1.259       .  A
C84          O92   1.256       .  A
C84         C909   1.480       .  S
O85          C93   1.262       .  A
O86          C93   1.266       .  A
C87          O94   1.261       .  A
C87          O88   1.259       .  A
C87         C736   1.484       .  S
C89          O91   1.260       .  A
C89          O95   1.261       .  A
C89         C726   1.488       .  S
C93         C719   1.480       .  S
In96         O98   2.289       .  S
In96         O99   2.226       .  S
In96        O107   2.273       .  S
In96        O101   2.232       .  S
In96        O103   2.262       .  S
In96        O104   2.271       .  S
In96        O105   2.229       .  S
In96        O108   2.215       .  S
C97         O103   1.262       .  A
C97         O105   1.257       .  A
C97         C789   1.479       .  S
O98         C106   1.263       .  A
O99         C106   1.257       .  A
C100        O107   1.264       .  A
C100        O101   1.260       .  A
C100        C739   1.485       .  S
C102        O104   1.267       .  A
C102        O108   1.261       .  A
C102        C706   1.484       .  S
C106       C1029   1.481       .  S
In109       O111   2.228       .  S
In109       O112   2.278       .  S
In109       O120   2.275       .  S
In109       O114   2.233       .  S
In109       O116   2.253       .  S
In109       O117   2.263       .  S
In109       O118   2.244       .  S
In109       O121   2.217       .  S
C110        O116   1.261       .  A
C110        O118   1.260       .  A
C110        C666   1.479       .  S
O111        C119   1.257       .  A
O112        C119   1.261       .  A
C113        O120   1.262       .  A
C113        O114   1.257       .  A
C113        C699   1.482       .  S
C115        O117   1.265       .  A
C115        O121   1.261       .  A
C115        C676   1.484       .  S
C119        C686   1.485       .  S
In122       O124   2.216       .  S
In122       O125   2.268       .  S
In122       O133   2.259       .  S
In122       O127   2.244       .  S
In122       O129   2.265       .  S
In122       O130   2.246       .  S
In122       O131   2.232       .  S
In122       O134   2.271       .  S
C123        O129   1.263       .  A
C123        O131   1.258       .  A
C123        C969   1.483       .  S
O124        C132   1.260       .  A
O125        C132   1.266       .  A
C126        O133   1.261       .  A
C126        O127   1.261       .  A
C126        C696   1.487       .  S
C128        O130   1.258       .  A
C128        O134   1.262       .  A
C128        C759   1.489       .  S
C132        C656   1.484       .  S
C135        C646   1.565       .  S
C135        C689   1.581       .  S
C135        C729   1.575       .  S
C135        C829   1.570       .  S
In136       O138   2.249       .  S
In136       O139   2.272       .  S
In136       O147   2.268       .  S
In136       O141   2.244       .  S
In136       O143   2.255       .  S
In136       O144   2.260       .  S
In136       O145   2.245       .  S
In136       O148   2.230       .  S
C137        O143   1.262       .  A
C137        O145   1.260       .  A
C137        C949   1.484       .  S
O138        C146   1.258       .  A
O139        C146   1.262       .  A
C140        O147   1.262       .  A
C140        O141   1.260       .  A
C140        C639   1.487       .  S
C142        O144   1.265       .  A
C142        O148   1.262       .  A
C142        C616   1.485       .  S
C146        C626   1.489       .  S
In149       O151   2.229       .  S
In149       O152   2.277       .  S
In149       O160   2.275       .  S
In149       O154   2.242       .  S
In149       O156   2.252       .  S
In149       O157   2.245       .  S
In149       O158   2.247       .  S
In149       O161   2.274       .  S
C150        O156   1.260       .  A
C150        O158   1.259       .  A
C150        C669   1.483       .  S
O151        C159   1.260       .  A
O152        C159   1.264       .  A
C153        O160   1.264       .  A
C153        O154   1.259       .  A
C153        C636   1.489       .  S
C155        O157   1.258       .  A
C155        O161   1.262       .  A
C155        C849   1.491       .  S
C159        C606   1.487   1_556  S
C162        C596   1.578       .  S
C162        C629   1.580       .  S
C162        C809   1.569   1_655  S
C162       C1009   1.581   1_655  S
In163       O165   2.222       .  S
In163       O166   2.254       .  S
In163       O174   2.250       .  S
In163       O168   2.225       .  S
In163       O170   2.258       .  S
In163       O171   2.238       .  S
In163       O172   2.208       .  S
In163       O175   2.253       .  S
C164        O170   1.262       .  A
C164        O172   1.257       .  A
C164        C566   1.475       .  S
O165        C173   1.260       .  A
O166        C173   1.264       .  A
C167        O174   1.264       .  A
C167        O168   1.260       .  A
C167        C586   1.481       .  S
C169        O171   1.257       .  A
C169        O175   1.260       .  A
C169        C576   1.477       .  S
C173        C979   1.478       .  S
In176       O178   2.246       .  S
In176       O179   2.245       .  S
In176       O187   2.259       .  S
In176       O181   2.236       .  S
In176       O183   2.242       .  S
In176       O184   2.252       .  S
In176       O185   2.235       .  S
In176       O188   2.233       .  S
C177        O183   1.262       .  A
C177        O185   1.260       .  A
C177        C546   1.479       .  S
O178        C186   1.258       .  A
O179        C186   1.261       .  A
C180        O187   1.260       .  A
C180        O181   1.259       .  A
C180        C589   1.478       .  S
C182        O184   1.263       .  A
C182        O188   1.262       .  A
C182        C959   1.485       .  S
C186        C556   1.483       .  S
C189        C516   1.577       .  S
C189        C526   1.567       .  S
C189        C539   1.572       .  S
C189        C839   1.574       .  S
In190       O192   2.226       .  S
In190       O193   2.260       .  S
In190       O201   2.266       .  S
In190       O195   2.212       .  S
In190       O197   2.244       .  S
In190       O198   2.257       .  S
In190       O199   2.230       .  S
In190       O202   2.220       .  S
C191        O197   1.262       .  A
C191        O199   1.261       .  A
C191        C499   1.480       .  S
O192        C200   1.259       .  A
O193        C200   1.264       .  A
C194        O201   1.262       .  A
C194        O195   1.258       .  A
C194        C509   1.477       .  S
C196        O198   1.263       .  A
C196        O202   1.257       .  A
C196        C529   1.464       .  S
C200        C919   1.480       .  S
In203       O205   2.199       .  S
In203       O206   2.293       .  S
In203       O214   2.285       .  S
In203       O208   2.197       .  S
In203       O210   2.241       .  S
In203       O211   2.265       .  S
In203       O212   2.237       .  S
In203       O215   2.232       .  S
C204        O210   1.261       .  A
C204        O212   1.262       .  A
C204        C476   1.476       .  S
O205        C213   1.251       .  A
O206        C213   1.263       .  A
C207        O214   1.263       .  A
C207        O208   1.254       .  A
C207        C506   1.477       .  S
C209        O211   1.263       .  A
C209        O215   1.260       .  A
C209        C889   1.484       .  S
C213        C486   1.470       .  S
C216        C466   1.578       .  S
C216        C489   1.564   1_545  S
C216        C579   1.567       .  S
C216        C866   1.566       .  S
C217        C446   1.585       .  S
C217        C459   1.582       .  S
C217        C559   1.596   1_455  S
C217       C1016   1.622       .  S
In218       O220   2.219       .  S
In218       O221   2.271       .  S
In218       O229   2.270       .  S
In218       O223   2.233       .  S
In218       O225   2.232       .  S
In218       O226   2.271       .  S
In218       O227   2.238       .  S
In218       O230   2.238       .  S
C219        O225   1.263       .  A
C219        O227   1.262       .  A
C219        C549   1.477       .  S
O220        C228   1.259       .  A
O221        C228   1.266       .  A
C222        O229   1.263       .  A
C222        O223   1.259       .  A
C222        C436   1.485       .  S
C224        O226   1.264       .  A
C224        O230   1.257       .  A
C224        C426   1.486       .  S
C228        C619   1.486       .  S
In231       O233   2.269       .  S
In231       O234   2.247       .  S
In231       O242   2.270       .  S
In231       O236   2.239       .  S
In231       O238   2.271       .  S
In231       O239   2.275       .  S
In231       O240   2.227       .  S
In231       O243   2.222       .  S
C232        O238   1.261       .  A
C232        O240   1.257       .  A
C232        C416   1.480       .  S
O233        C241   1.263       .  A
O234        C241   1.259       .  A
C235        O242   1.263       .  A
C235        O236   1.259       .  A
C235        C439   1.488       .  S
C237        O239   1.266       .  A
C237        O243   1.260       .  A
C237        C609   1.486       .  S
C241        C536   1.491       .  S
C244        C406   1.567       .  S
C244        C429   1.572   1_455  S
C244        C449   1.573       .  S
C244        C599   1.575   1_455  S
In245       O247   2.232       .  S
In245       O248   2.272       .  S
In245       O256   2.264       .  S
In245       O250   2.238       .  S
In245       O252   2.246       .  S
In245       O253   2.266       .  S
In245       O254   2.226       .  S
In245       O257   2.223       .  S
C246        O252   1.263       .  A
C246        O254   1.260       .  A
C246        C496   1.480       .  S
O247        C255   1.258       .  A
O248        C255   1.263       .  A
C249        O256   1.263       .  A
C249        O250   1.259       .  A
C249        C396   1.483       .  S
C251        O253   1.265       .  A
C251        O257   1.260       .  A
C251        C716   1.480       .  S
C255        C386   1.477       .  S
In258       O260   2.207       .  S
In258       O261   2.281       .  S
In258       O269   2.267       .  S
In258       O263   2.248       .  S
In258       O265   2.248       .  S
In258       O266   2.223       .  S
In258       O267   2.236       .  S
In258       O270   2.295       .  S
C259        O265   1.261       .  A
C259        O267   1.258       .  A
C259        C376   1.479       .  S
O260        C268   1.259       .  A
O261        C268   1.267       .  A
C262        O269   1.261       .  A
C262        O263   1.259       .  A
C262        C399   1.487       .  S
C264        O266   1.258       .  A
C264        O270   1.264       .  A
C264        C456   1.489       .  S
C268        C709   1.482       .  S
In271       O273   2.215       .  S
In271       O274   2.279       .  S
In271       O282   2.280       .  S
In271       O276   2.228       .  S
In271       O278   2.253       .  S
In271       O279   2.247       .  S
In271       O280   2.233       .  S
In271       O283   2.248       .  S
C272        O278   1.261       .  A
C272        O280   1.261       .  A
C272        C419   1.480       .  S
O273        C281   1.259       .  A
O274        C281   1.265       .  A
C275        O282   1.263       .  A
C275        O276   1.258       .  A
C275        C366   1.487       .  S
C277        O279   1.260       .  A
C277        O283   1.263       .  A
C277        C356   1.487       .  S
C281        C679   1.481       .  S
In284       O286   2.255       .  S
In284       O287   2.255       .  S
In284       O295   2.271       .  S
In284       O289   2.226       .  S
In284       O291   2.250       .  S
In284       O292   2.266       .  S
In284       O293   2.214       .  S
In284       O296   2.228       .  S
C285        O291   1.261       .  A
C285        O293   1.260       .  A
C285        C569   1.476       .  S
O286        C294   1.259       .  A
O287        C294   1.262       .  A
C288        O295   1.264       .  A
C288        O289   1.258       .  A
C288        C369   1.485       .  S
C290        O292   1.264       .  A
C290        O296   1.260       .  A
C290        C659   1.485       .  S
C294        C346   1.490       .  S
C297        C359   1.565       .  S
C297        C389   1.581       .  S
C297        C519   1.587       .  S
C297        C649   1.574       .  S
In298       O300   2.278       .  S
In298       O301   2.243       .  S
In298       O309   2.262       .  S
In298       O303   2.239       .  S
In298       O305   2.244       .  S
In298       O306   2.270       .  S
In298       O307   2.254       .  S
In298       O310   2.241       .  S
C299        O305   1.258       .  A
C299        O307   1.258       .  A
C299        C379   1.475       .  S
O300        C308   1.259       .  A
O301        C308   1.259       .  A
C302        O309   1.263       .  A
C302        O303   1.258       .  A
C302        C336   1.483       .  S
C304        O306   1.265       .  A
C304        O310   1.262       .  A
C304        C796   1.489       .  S
C308        C409   1.491       .  S
In311       O313   2.235       .  S
In311       O314   2.276       .  S
In311       O322   2.249       .  S
In311       O316   2.236       .  S
In311       O318   2.253       .  S
In311       O319   2.226       .  S
In311       O320   2.230       .  S
In311       O323   2.285       .  S
C312        O318   1.261       .  A
C312        O320   1.258       .  A
C312        C479   1.480       .  S
O313        C321   1.259       .  A
O314        C321   1.264       .  A
C315        O322   1.264       .  A
C315        O316   1.261       .  A
C315        C339   1.481       .  S
C317        O319   1.256       .  A
C317        O323   1.263       .  A
C317        C329   1.484       .  S
C321        C769   1.486       .  S
C324        C326   1.571   1_545  S
C324        C349   1.596       .  S
C324        C469   1.596       .  S
C324        C749   1.605   1_545  S
C325        C326   1.427       .  A
C325        C330   1.406       .  A
C325        F332   1.358       .  S
C326        C327   1.423       .  A
C327        C328   1.395       .  A
C327        F334   1.355       .  S
C328        C329   1.403       .  A
C328        F333   1.359       .  S
C329        C330   1.402       .  A
C330        F331   1.357       .  S
C335        C336   1.406       .  A
C335        C340   1.399       .  A
C335        F342   1.357       .  S
C336        C337   1.409       .  A
C337        C338   1.401       .  A
C337        F344   1.358       .  S
C338        C339   1.408       .  A
C338        F343   1.359       .  S
C339        C340   1.407       .  A
C340        F341   1.357       .  S
C345        C346   1.398       .  A
C345        C350   1.401       .  A
C345        F352   1.359       .  S
C346        C347   1.403       .  A
C347        C348   1.402       .  A
C347        F354   1.358       .  S
C348        C349   1.430       .  A
C348        F353   1.360       .  S
C349        C350   1.435       .  A
C350        F351   1.351       .  S
C355        C356   1.403       .  A
C355        C360   1.398       .  A
C355        F362   1.358       .  S
C356        C357   1.407       .  A
C357        C358   1.401       .  A
C357        F364   1.358       .  S
C358        C359   1.419       .  A
C358        F363   1.358       .  S
C359        C360   1.426       .  A
C360        F361   1.355       .  S
C365        C366   1.409       .  A
C365        C370   1.406       .  A
C365        F372   1.357       .  S
C366        C367   1.408       .  A
C367        C368   1.396       .  A
C367        F374   1.358       .  S
C368        C369   1.407       .  A
C368        F373   1.358       .  S
C369        C370   1.409       .  A
C370        F371   1.358       .  S
C375        C376   1.407       .  A
C375        C380   1.396       .  A
C375        F382   1.358       .  S
C376        C377   1.410       .  A
C377        C378   1.399       .  A
C377        F384   1.358       .  S
C378        C379   1.406       .  A
C378        F383   1.358       .  S
C379        C380   1.405       .  A
C380        F381   1.358       .  S
C385        C386   1.397       .  A
C385        C390   1.407       .  A
C385        F392   1.357       .  S
C386        C387   1.398       .  A
C387        C388   1.394       .  A
C387        F394   1.360       .  S
C388        C389   1.430       .  A
C388        F393   1.354       .  S
C389        C390   1.429       .  A
C390        F391   1.357       .  S
C395        C396   1.407       .  A
C395        C400   1.401       .  A
C395        F402   1.358       .  S
C396        C397   1.407       .  A
C397        C398   1.403       .  A
C397        F404   1.358       .  S
C398        C399   1.410       .  A
C398        F403   1.358       .  S
C399        C400   1.408       .  A
C400        F401   1.358       .  S
C405        C406   1.422       .  A
C405        C410   1.410       .  A
C405        F412   1.354       .  S
C406        C407   1.422       .  A
C407        C408   1.392       .  A
C407        F414   1.357       .  S
C408        C409   1.401       .  A
C408        F413   1.358       .  S
C409        C410   1.409       .  A
C410        F411   1.358       .  S
C415        C416   1.408       .  A
C415        C420   1.403       .  A
C415        F422   1.358       .  S
C416        C417   1.407       .  A
C417        C418   1.394       .  A
C417        F424   1.358       .  S
C418        C419   1.405       .  A
C418        F423   1.358       .  S
C419        C420   1.410       .  A
C420        F421   1.358       .  S
C425        C426   1.405       .  A
C425        C430   1.400       .  A
C425        F432   1.358       .  S
C426        C427   1.399       .  A
C427        C428   1.402       .  A
C427        F434   1.358       .  S
C428        C429   1.429       .  A
C428        F433   1.357       .  S
C429        C430   1.419       .  A
C430        F431   1.352       .  S
C435        C436   1.408       .  A
C435        C440   1.404       .  A
C435        F442   1.358       .  S
C436        C437   1.407       .  A
C437        C438   1.399       .  A
C437        F444   1.358       .  S
C438        C439   1.409       .  A
C438        F443   1.358       .  S
C439        C440   1.410       .  A
C440        F441   1.358       .  S
C445        C446   1.415       .  A
C445        C450   1.394       .  A
C445        F452   1.349       .  S
C446        C447   1.433   1_455  A
C447        C448   1.410       .  A
C447        F454   1.357       .  S
C448        C449   1.413   1_655  A
C448        F453   1.356       .  S
C449        C450   1.419       .  A
C450        F451   1.356       .  S
C455        C456   1.401       .  A
C455        C460   1.393       .  A
C455        F462   1.359       .  S
C456        C457   1.404       .  A
C457        C458   1.412       .  A
C457        F464   1.357       .  S
C458        C459   1.431       .  A
C458        F463   1.358       .  S
C459        C460   1.428       .  A
C460        F461   1.354       .  S
C465        C466   1.417       .  A
C465        C470   1.404       .  A
C465        F472   1.354       .  S
C466        C467   1.416   1_545  A
C467        C468   1.399       .  A
C467        F474   1.357       .  S
C468        C469   1.420   1_565  A
C468        F473   1.346       .  S
C469        C470   1.428       .  A
C470        F471   1.356       .  S
C475        C476   1.408       .  A
C475        C480   1.399       .  A
C475        F482   1.358       .  S
C476        C477   1.404       .  A
C477        C478   1.394       .  A
C477        F484   1.358       .  S
C478        C479   1.409       .  A
C478        F483   1.358       .  S
C479        C480   1.408       .  A
C480        F481   1.358       .  S
C485        C486   1.399       .  A
C485        C490   1.388       .  A
C485        F492   1.360       .  S
C486        C487   1.398       .  A
C487        C488   1.405       .  A
C487        F494   1.357       .  S
C488        C489   1.427       .  A
C488        F493   1.357       .  S
C489        C490   1.424       .  A
C490        F491   1.355       .  S
C495        C496   1.408       .  A
C495        C500   1.399       .  A
C495        F502   1.358       .  S
C496        C497   1.408       .  A
C497        C498   1.395       .  A
C497        F504   1.358       .  S
C498        C499   1.407       .  A
C498        F503   1.358       .  S
C499        C500   1.409       .  A
C500        F501   1.358       .  S
C505        C506   1.407       .  A
C505        C510   1.404       .  A
C505        F512   1.357       .  S
C506        C507   1.407       .  A
C507        C508   1.391       .  A
C507        F514   1.359       .  S
C508        C509   1.406       .  A
C508        F513   1.358       .  S
C509        C510   1.409       .  A
C510        F511   1.357       .  S
C515        C516   1.419       .  A
C515        C520   1.400       .  A
C515        F522   1.357       .  S
C516        C517   1.419       .  A
C517        C518   1.403       .  A
C517        F524   1.355       .  S
C518        C519   1.424       .  A
C518        F523   1.355       .  S
C519        C520   1.422       .  A
C520        F521   1.359       .  S
C525        C526   1.427       .  A
C525        C530   1.403       .  A
C525        F532   1.357       .  S
C526        C527   1.426       .  A
C527        C528   1.391       .  A
C527        F534   1.354       .  S
C528        C529   1.396       .  A
C528        F533   1.360       .  S
C529        C530   1.395       .  A
C530        F531   1.357       .  S
C535        C536   1.405       .  A
C535        C540   1.404       .  A
C535        F542   1.358       .  S
C536        C537   1.406       .  A
C537        C538   1.399       .  A
C537        F544   1.358       .  S
C538        C539   1.423       .  A
C538        F543   1.357       .  S
C539        C540   1.424       .  A
C540        F541   1.355       .  S
C545        C546   1.407       .  A
C545        C550   1.396       .  A
C545        F552   1.358       .  S
C546        C547   1.408       .  A
C547        C548   1.398       .  A
C547        F554   1.358       .  S
C548        C549   1.407       .  A
C548        F553   1.358       .  S
C549        C550   1.406       .  A
C550        F551   1.358       .  S
C555        C556   1.400       .  A
C555        C560   1.399       .  A
C555        F562   1.358       .  S
C556        C557   1.396       .  A
C557        C558   1.398       .  A
C557        F564   1.359       .  S
C558        C559   1.437       .  A
C558        F563   1.351       .  S
C559        C560   1.430       .  A
C560        F561   1.361       .  S
C565        C566   1.407       .  A
C565        C570   1.401       .  A
C565        F572   1.358       .  S
C566        C567   1.407       .  A
C567        C568   1.389       .  A
C567        F574   1.358       .  S
C568        C569   1.406       .  A
C568        F573   1.358       .  S
C569        C570   1.409       .  A
C570        F571   1.358       .  S
C575        C576   1.402       .  A
C575        C580   1.395       .  A
C575        F582   1.358       .  S
C576        C577   1.399       .  A
C577        C578   1.399       .  A
C577        F584   1.358       .  S
C578        C579   1.426       .  A
C578        F583   1.355       .  S
C579        C580   1.422       .  A
C580        F581   1.357       .  S
C585        C586   1.408       .  A
C585        C590   1.400       .  A
C585        F592   1.358       .  S
C586        C587   1.409       .  A
C587        C588   1.398       .  A
C587        F594   1.358       .  S
C588        C589   1.405       .  A
C588        F593   1.358       .  S
C589        C590   1.407       .  A
C590        F591   1.358       .  S
C595        C596   1.422       .  A
C595        C600   1.374       .  A
C595        F602   1.357       .  S
C596        C597   1.420       .  A
C597        C598   1.422       .  A
C597        F604   1.357   1_655  S
C598        C599   1.420       .  A
C598        F603   1.356   1_655  S
C599        C600   1.418       .  A
C600        F601   1.358       .  S
C605        C606   1.407       .  A
C605        C610   1.396       .  A
C605        F612   1.358       .  S
C606        C607   1.410       .  A
C607        C608   1.407       .  A
C607        F614   1.357       .  S
C608        C609   1.409       .  A
C608        F613   1.358       .  S
C609        C610   1.408       .  A
C610        F611   1.358       .  S
C615        C616   1.407   1_554  A
C615        C620   1.396       .  A
C615        F622   1.358   1_554  S
C616        C617   1.409   1_556  A
C617        C618   1.404       .  A
C617        F624   1.357   1_554  S
C618        C619   1.408       .  A
C618        F623   1.357       .  S
C619        C620   1.409       .  A
C620        F621   1.358       .  S
C625        C626   1.405       .  A
C625        C630   1.402       .  A
C625        F632   1.358       .  S
C626        C627   1.400       .  A
C627        C628   1.403       .  A
C627        F634   1.358       .  S
C628        C629   1.432       .  A
C628        F633   1.357       .  S
C629        C630   1.420       .  A
C630        F631   1.352       .  S
C635        C636   1.409       .  A
C635        C640   1.400       .  A
C635        F642   1.358       .  S
C636        C637   1.409       .  A
C637        C638   1.404       .  A
C637        F644   1.357       .  S
C638        C639   1.409       .  A
C638        F643   1.358       .  S
C639        C640   1.407       .  A
C640        F641   1.358       .  S
C645        C646   1.415       .  A
C645        C650   1.411       .  A
C645        F652   1.357       .  S
C646        C647   1.420       .  A
C647        C648   1.382       .  A
C647        F654   1.355       .  S
C648        C649   1.415       .  A
C648        F653   1.356       .  S
C649        C650   1.424       .  A
C650        F651   1.349       .  S
C655        C656   1.408   1_554  A
C655        C660   1.404       .  A
C655        F662   1.358       .  S
C656        C657   1.408   1_556  A
C657        C658   1.395       .  A
C657        F664   1.358   1_554  S
C658        C659   1.408       .  A
C658        F663   1.358       .  S
C659        C660   1.410       .  A
C660        F661   1.357       .  S
C665        C666   1.406       .  A
C665        C670   1.399       .  A
C665        F672   1.358       .  S
C666        C667   1.406       .  A
C667        C668   1.399       .  A
C667        F674   1.358       .  S
C668        C669   1.408       .  A
C668        F673   1.358       .  S
C669        C670   1.409       .  A
C670        F671   1.358       .  S
C675        C676   1.407   1_554  A
C675        C680   1.393       .  A
C675        F682   1.358   1_554  S
C676        C677   1.411   1_556  A
C677        C678   1.406       .  A
C677        F684   1.358   1_554  S
C678        C679   1.408       .  A
C678        F683   1.358       .  S
C679        C680   1.406       .  A
C680        F681   1.358       .  S
C685        C686   1.400       .  A
C685        C690   1.393       .  A
C685        F692   1.359       .  S
C686        C687   1.401       .  A
C687        C688   1.407       .  A
C687        F694   1.358       .  S
C688        C689   1.430       .  A
C688        F693   1.356       .  S
C689        C690   1.424       .  A
C690        F691   1.347       .  S
C695        C696   1.408       .  A
C695        C700   1.399       .  A
C695        F702   1.358       .  S
C696        C697   1.411       .  A
C697        C698   1.403       .  A
C697        F704   1.358       .  S
C698        C699   1.407       .  A
C698        F703   1.358       .  S
C699        C700   1.406       .  A
C700        F701   1.358       .  S
C705        C706   1.410   1_554  A
C705        C710   1.407       .  A
C705        F712   1.357   1_554  S
C706        C707   1.407   1_556  A
C707        C708   1.393       .  A
C707        F714   1.358   1_554  S
C708        C709   1.406       .  A
C708        F713   1.359       .  S
C709        C710   1.408       .  A
C710        F711   1.357       .  S
C715        C716   1.408       .  A
C715        C720   1.404       .  A
C715        F722   1.358       .  S
C716        C717   1.406       .  A
C717        C718   1.395       .  A
C717        F724   1.358       .  S
C718        C719   1.407   1_554  A
C718        F723   1.358       .  S
C719        C720   1.408   1_556  A
C720        F721   1.358   1_554  S
C725        C726   1.404       .  A
C725        C730   1.400       .  A
C725        F732   1.358       .  S
C726        C727   1.403       .  A
C727        C728   1.400       .  A
C727        F734   1.358       .  S
C728        C729   1.427       .  A
C728        F733   1.354       .  S
C729        C730   1.423       .  A
C730        F731   1.357       .  S
C735        C736   1.406       .  A
C735        C740   1.398       .  A
C735        F742   1.358       .  S
C736        C737   1.409       .  A
C737        C738   1.405       .  A
C737        F744   1.358       .  S
C738        C739   1.409       .  A
C738        F743   1.358       .  S
C739        C740   1.407       .  A
C740        F741   1.358       .  S
C745        C746   1.411   1_545  A
C745        C750   1.395       .  A
C745        F752   1.357       .  S
C746        C747   1.418       .  A
C747        C748   1.405       .  A
C747        F754   1.356       .  S
C748        C749   1.434       .  A
C748        F753   1.356       .  S
C749        C750   1.421   1_565  A
C750        F751   1.350       .  S
C755        C756   1.421       .  A
C755        C760   1.397       .  A
C755        F762   1.355       .  S
C756        C757   1.424       .  A
C757        C758   1.404       .  A
C757        F764   1.356       .  S
C758        C759   1.404       .  A
C758        F763   1.358       .  S
C759        C760   1.404       .  A
C760        F761   1.358       .  S
C765        C766   1.409   1_554  A
C765        C770   1.405       .  A
C765        F772   1.358   1_554  S
C766        C767   1.407   1_556  A
C767        C768   1.398       .  A
C767        F774   1.358       .  S
C768        C769   1.408       .  A
C768        F773   1.358       .  S
C769        C770   1.409       .  A
C770        F771   1.357       .  S
C775        C776   1.401       .  A
C775        C780   1.393       .  A
C775        F782   1.359       .  S
C776        C777   1.401       .  A
C777        C778   1.404       .  A
C777        F784   1.357       .  S
C778        C779   1.423       .  A
C778        F783   1.356       .  S
C779        C780   1.424       .  A
C780        F781   1.353       .  S
C785        C786   1.406       .  A
C785        C790   1.395       .  A
C785        F792   1.358       .  S
C786        C787   1.408       .  A
C787        C788   1.401       .  A
C787        F794   1.358       .  S
C788        C789   1.408       .  A
C788        F793   1.358       .  S
C789        C790   1.407       .  A
C790        F791   1.358       .  S
C795        C796   1.407       .  A
C795        C800   1.400       .  A
C795        F802   1.358       .  S
C796        C797   1.410       .  A
C797        C798   1.407       .  A
C797        F804   1.358       .  S
C798        C799   1.409   1_554  A
C798        F803   1.358   1_554  S
C799        C800   1.409   1_556  A
C800        F801   1.358   1_554  S
C805        C806   1.409       .  A
C805        C810   1.410       .  A
C805        F812   1.358       .  S
C806        C807   1.402       .  A
C807        C808   1.392       .  A
C807        F814   1.358       .  S
C808        C809   1.423       .  A
C808        F813   1.358       .  S
C809        C810   1.423       .  A
C810        F811   1.352       .  S
C815        C816   1.408       .  A
C815        C820   1.398       .  A
C815        F822   1.359       .  S
C816        C817   1.407       .  A
C817        C818   1.400       .  A
C817        F824   1.358       .  S
C818        C819   1.408       .  A
C818        F823   1.357       .  S
C819        C820   1.408       .  A
C820        F821   1.358       .  S
C825        C826   1.425       .  A
C825        C830   1.405       .  A
C825        F832   1.353       .  S
C826        C827   1.418       .  A
C827        C828   1.392       .  A
C827        F834   1.357       .  S
C828        C829   1.417       .  A
C828        F833   1.353       .  S
C829        C830   1.414       .  A
C830        F831   1.355       .  S
C835        C836   1.419       .  A
C835        C840   1.400       .  A
C835        F842   1.358       .  S
C836        C837   1.422       .  A
C837        C838   1.402       .  A
C837        F844   1.354       .  S
C838        C839   1.422       .  A
C838        F843   1.355       .  S
C839        C840   1.417       .  A
C840        F841   1.358       .  S
C845        C846   1.421       .  A
C845        C850   1.398       .  A
C845        F852   1.358       .  S
C846        C847   1.424       .  A
C847        C848   1.404       .  A
C847        F854   1.355       .  S
C848        C849   1.405       .  A
C848        F853   1.358       .  S
C849        C850   1.405       .  A
C850        F851   1.358       .  S
C855        C856   1.420       .  A
C855        C860   1.407       .  A
C855        F862   1.356       .  S
C856        C857   1.417   1_545  A
C857        C858   1.391       .  A
C857        F864   1.354       .  S
C858        C859   1.416   1_565  A
C858        F863   1.356       .  S
C859        C860   1.421       .  A
C860        F861   1.356       .  S
C865        C866   1.422   1_565  A
C865        C870   1.402       .  A
C865        F872   1.355       .  S
C866        C867   1.414       .  A
C867        C868   1.393       .  A
C867        F874   1.359       .  S
C868        C869   1.417       .  A
C868        F873   1.356       .  S
C869        C870   1.421   1_545  A
C870        F871   1.355       .  S
C875        C876   1.409       .  A
C875        C880   1.398       .  A
C875        F882   1.358       .  S
C876        C877   1.407       .  A
C877        C878   1.397       .  A
C877        F884   1.358       .  S
C878        C879   1.408       .  A
C878        F883   1.358       .  S
C879        C880   1.407       .  A
C880        F881   1.358       .  S
C885        C886   1.408       .  A
C885        C890   1.395       .  A
C885        F892   1.358       .  S
C886        C887   1.408       .  A
C887        C888   1.403       .  A
C887        F894   1.358       .  S
C888        C889   1.410       .  A
C888        F893   1.358       .  S
C889        C890   1.408       .  A
C890        F891   1.358       .  S
C895        C896   1.423       .  A
C895        C900   1.406       .  A
C895        F902   1.357       .  S
C896        C897   1.424       .  A
C897        C898   1.391       .  A
C897        F904   1.354       .  S
C898        C899   1.401       .  A
C898        F903   1.359       .  S
C899        C900   1.402       .  A
C900        F901   1.357       .  S
C905        C906   1.406       .  A
C905        C910   1.394       .  A
C905        F912   1.358       .  S
C906        C907   1.408       .  A
C907        C908   1.401       .  A
C907        F914   1.358       .  S
C908        C909   1.409       .  A
C908        F913   1.358       .  S
C909        C910   1.407       .  A
C910        F911   1.358       .  S
C915        C916   1.408       .  A
C915        C920   1.402       .  A
C915        F922   1.357       .  S
C916        C917   1.409       .  A
C917        C918   1.396       .  A
C917        F924   1.358       .  S
C918        C919   1.406       .  A
C918        F923   1.359       .  S
C919        C920   1.407       .  A
C920        F921   1.357       .  S
C925        C926   1.400       .  A
C925        C930   1.408       .  A
C925        F932   1.357       .  S
C926        C927   1.399       .  A
C927        C928   1.392       .  A
C927        F934   1.360       .  S
C928        C929   1.426       .  A
C928        F933   1.354       .  S
C929        C930   1.427       .  A
C930        F931   1.358       .  S
C935        C936   1.408       .  A
C935        C940   1.401       .  A
C935        F942   1.358       .  S
C936        C937   1.407       .  A
C937        C938   1.397       .  A
C937        F944   1.358       .  S
C938        C939   1.406       .  A
C938        F943   1.358       .  S
C939        C940   1.408       .  A
C940        F941   1.358       .  S
C945        C946   1.408       .  A
C945        C950   1.400       .  A
C945        F952   1.358       .  S
C946        C947   1.408       .  A
C947        C948   1.398       .  A
C947        F954   1.358       .  S
C948        C949   1.408       .  A
C948        F953   1.358       .  S
C949        C950   1.408       .  A
C950        F951   1.357       .  S
C955        C956   1.408   1_554  A
C955        C960   1.397       .  A
C955        F962   1.358   1_554  S
C956        C957   1.408   1_556  A
C957        C958   1.403       .  A
C957        F964   1.357       .  S
C958        C959   1.410       .  A
C958        F963   1.358       .  S
C959        C960   1.408       .  A
C960        F961   1.358       .  S
C965        C966   1.408       .  A
C965        C970   1.397       .  A
C965        F972   1.359       .  S
C966        C967   1.408       .  A
C967        C968   1.401       .  A
C967        F974   1.357       .  S
C968        C969   1.407       .  A
C968        F973   1.357       .  S
C969        C970   1.408       .  A
C970        F971   1.358       .  S
C975        C976   1.409   1_554  A
C975        C980   1.402       .  A
C975        F982   1.358   1_554  S
C976        C977   1.409   1_556  A
C977        C978   1.395       .  A
C977        F984   1.358   1_554  S
C978        C979   1.406       .  A
C978        F983   1.358       .  S
C979        C980   1.407       .  A
C980        F981   1.358       .  S
C985        C986   1.404       .  A
C985        C990   1.403       .  A
C985        F992   1.358       .  S
C986        C987   1.405       .  A
C987        C988   1.397       .  A
C987        F994   1.358       .  S
C988        C989   1.420       .  A
C988        F993   1.356       .  S
C989        C990   1.425       .  A
C990        F991   1.356       .  S
C995        C996   1.408       .  A
C995       C1000   1.398       .  A
C995       F1002   1.358       .  S
C996        C997   1.410       .  A
C997        C998   1.403       .  A
C997       F1004   1.357       .  S
C998        C999   1.407       .  A
C998       F1003   1.358       .  S
C999       C1000   1.410       .  A
C1000      F1001   1.358       .  S
C1005      C1006   1.416       .  A
C1005      C1010   1.398       .  A
C1005      F1012   1.356       .  S
C1006      C1007   1.430   1_455  A
C1007      C1008   1.411       .  A
C1007      F1014   1.354       .  S
C1008      C1009   1.415   1_655  A
C1008      F1013   1.354       .  S
C1009      C1010   1.422       .  A
C1010      F1011   1.357       .  S
C1015      C1016   1.437       .  A
C1015      C1020   1.412       .  A
C1015      F1022   1.356       .  S
C1016      C1017   1.433   1_455  A
C1017      C1018   1.403       .  A
C1017      F1024   1.343       .  S
C1018      C1019   1.407   1_655  A
C1018      F1023   1.359       .  S
C1019      C1020   1.419       .  A
C1020      F1021   1.356       .  S
C1025      C1026   1.428       .  A
C1025      C1030   1.408       .  A
C1025      F1032   1.357       .  S
C1026      C1027   1.424       .  A
C1027      C1028   1.395       .  A
C1027      F1034   1.354       .  S
C1028      C1029   1.401       .  A
C1028      F1033   1.359       .  S
C1029      C1030   1.399       .  A
C1030      F1031   1.358       .  S
C1035      C1036   1.405       .  A
C1035      C1040   1.407       .  A
C1035      F1042   1.358       .  S
C1036      C1037   1.402       .  A
C1037      C1038   1.396       .  A
C1037      F1044   1.358       .  S
C1038      C1039   1.423       .  A
C1038      F1043   1.356   1_655  S
C1039      C1040   1.426       .  A
C1040      F1041   1.355       .  S
