geometry optimzed in LAMMPS
_audit_creation_date              2020-11-30 
_audit_creation_method            'lammps2cif' 
_symmetry_space_group_name_H-M    'P1' 
_symmetry_Int_Tables_number       1 
_symmetry_cell_setting            triclinic 
loop_ 
_symmetry_equiv_pos_as_xyz 
  x,y,z 
_cell_length_a                    44.77862018 
_cell_length_b                    28.05888975000665 
_cell_length_c                    33.968214539864796 
_cell_angle_alpha                 89.99861851843906 
_cell_angle_beta                  90.00310847207106 
_cell_angle_gamma                 90.00003945111408 
loop_ 
_atom_site_label 
_atom_site_type_symbol 
_atom_site_fract_x 
_atom_site_fract_y 
_atom_site_fract_z 
_atom_site_charge 
C1          C  0.32283830  0.12011060  0.26932245     0.85200
C2          C  0.34310917  0.16363925  0.27614470    -0.55000
C3          C  0.36823154  0.16320216  0.25373484     0.08100
C4          C  0.37100594  0.12003251  0.22664085     0.19100
C5          C  0.31661344  0.11991841  0.22475658    -0.55800
C6          C  0.34199344  0.11986535  0.20190301     0.08200
C7          C  0.34314561  0.07667776  0.27637499    -0.55300
C8          C  0.36826681  0.07702422  0.25393398     0.08800
H9          H  0.33808112  0.19233192  0.29657452     0.13300
H10         H  0.39231377  0.12012740  0.21035723    -0.01000
H11         H  0.29413229  0.11966026  0.21292575     0.13600
H12         H  0.33812230  0.04809568  0.29690664     0.13400
C13         C  0.32283118  0.11964092  0.09030652     0.85200
C14         C  0.34197497  0.07472413  0.08384289    -0.55000
C15         C  0.36713835  0.07394128  0.10625544     0.08100
C16         C  0.37097024  0.11722178  0.13304782     0.19100
C17         C  0.31662636  0.12081979  0.13488115    -0.55800
C18         C  0.34198629  0.11938516  0.15775782     0.08200
C19         C  0.34424269  0.16161944  0.08297725    -0.55300
C20         C  0.36930421  0.16009404  0.10547414     0.08800
H21         H  0.33642353  0.04641327  0.06330337     0.13300
H22         H  0.39226081  0.11605453  0.14934516    -0.01000
H23         H  0.29417048  0.12262933  0.14670029     0.13600
H24         H  0.33973477  0.19057310  0.06257747     0.13400
O25         O  0.28464175  0.08483871  0.04901746    -0.73100
O26         O  0.22404992  0.08169445  0.30773970    -0.73300
O27         O  0.28445745  0.08171916  0.30769369    -0.73200
O28         O  0.22393262  0.08478095  0.04931433    -0.73200
O29         O  0.22402791  0.16184002  0.05532713    -0.73100
O30         O  0.28431257  0.15911956  0.30687095    -0.73100
O31         O  0.22400435  0.15909407  0.30718842    -0.73100
O32         O  0.28411479  0.16181611  0.05566115    -0.73300
V33         V  0.25418814  0.09068190  0.01030894     1.35200
V34         V  0.25418710  0.16471507  0.01620494     1.35200
C35         C  0.29547495  0.12199726  0.06455707     0.76200
C36         C  0.21293322  0.12025727  0.29520062     0.76200
C37         C  0.29546703  0.12028904  0.29502635     0.76100
C38         C  0.21288160  0.12197520  0.06453640     0.76000
C39         C  0.18557042  0.12008229  0.26941228     0.85200
C40         C  0.16530017  0.07654263  0.27623342    -0.55000
C41         C  0.14017675  0.07698207  0.25377178     0.08100
C42         C  0.13741784  0.12015751  0.22666491     0.19100
C43         C  0.19180633  0.12019718  0.22482193    -0.55800
C44         C  0.16642574  0.12018241  0.20193926     0.08200
C45         C  0.16524745  0.16350601  0.27639306    -0.55300
C46         C  0.14015626  0.16316657  0.25392940     0.08800
H47         H  0.17033061  0.04786403  0.29666937     0.13300
H48         H  0.11611344  0.12032954  0.21037166    -0.01000
H49         H  0.21428839  0.12003332  0.21299535     0.13600
H50         H  0.17024593  0.19211342  0.29691739     0.13400
C51         C  0.18553246  0.11961493  0.09030048     0.85200
C52         C  0.16407860  0.16149600  0.08281662    -0.55000
C53         C  0.13903708  0.16005070  0.10533201     0.08100
C54         C  0.13740845  0.11732907  0.13306907     0.19100
C55         C  0.19174963  0.12105481  0.13487537    -0.55800
C56         C  0.16640434  0.11967388  0.15777462     0.08200
C57         C  0.16642631  0.07462423  0.08400197    -0.55300
C58         C  0.14125476  0.07391708  0.10641067     0.08800
H59         H  0.16855499  0.19036569  0.06232393     0.13300
H60         H  0.11611888  0.11622289  0.14936889    -0.01000
H61         H  0.21420692  0.12294894  0.14668560     0.13600
H62         H  0.17198659  0.04625105  0.06352606     0.13400
C63         C  0.43558131  0.99509605  0.26941703     0.85200
C64         C  0.41531337  0.20155474  0.27624171    -0.55000
C65         C  0.39018941  0.20199025  0.25378179     0.08100
C66         C  0.38742776  0.99516299  0.22667255     0.19100
C67         C  0.44181594  0.99520838  0.22482596    -0.55800
C68         C  0.41643444  0.24518810  0.20194471     0.08200
C69         C  0.41525748  0.03851777  0.27639716    -0.55300
C70         C  0.39016639  0.03817475  0.25393408     0.08800
H71         H  0.42034535  0.17287825  0.29667886     0.13300
H72         H  0.36612264  0.99533176  0.21038119    -0.01000
H73         H  0.46429759  0.99504670  0.21299800     0.13600
H74         H  0.42025551  0.06712701  0.29692006     0.13400
C75         C  0.43553526  0.24462431  0.09030358     0.85200
C76         C  0.41408080  0.03650701  0.08282637    -0.55000
C77         C  0.38903994  0.03505813  0.10534321     0.08100
C78         C  0.38741293  0.24233287  0.13307649     0.19100
C79         C  0.44175463  0.24605718  0.13487817    -0.55800
C80         C  0.41641049  0.99467566  0.15777971     0.08200
C81         C  0.41642769  0.19963500  0.08400197    -0.55300
C82         C  0.39125686  0.19892454  0.10641279     0.08800
H83         H  0.41855520  0.06537904  0.06233512     0.13300
H84         H  0.36612444  0.24122477  0.14937839    -0.01000
H85         H  0.46421222  0.24795066  0.14668646     0.13600
H86         H  0.42198742  0.17126469  0.06352344     0.13400
O87         O  0.03430691  0.03411602  0.30687068    -0.73100
O88         O  0.47401220  0.03685061  0.05529058    -0.73300
O89         O  0.03413481  0.03681651  0.05561717    -0.73200
O90         O  0.47401799  0.03411420  0.30718252    -0.73200
O91         O  0.47405592  0.20671467  0.30775300    -0.73100
O92         O  0.03462946  0.20983014  0.04903654    -0.73100
O93         O  0.47395308  0.20978347  0.04934872    -0.73100
O94         O  0.03443550  0.20671563  0.30767990    -0.73300
V95         V  0.00418913  0.03969899  0.01618622     1.35200
V96         V  0.00419278  0.21566346  0.01030727     1.35200
C97         C  0.04545238  0.24528316  0.29501672     0.76200
C98         C  0.46288426  0.24698471  0.06453684     0.76200
C99         C  0.04547808  0.99699567  0.06454432     0.76100
C100        C  0.46294346  0.99527555  0.29520449     0.76000
C101        C  0.07282441  0.24510092  0.26931073     0.85200
C102        C  0.09309336  0.03863373  0.27612816    -0.55000
C103        C  0.11821728  0.03819547  0.25372148     0.08100
C104        C  0.12099482  0.24502189  0.22663283     0.19100
C105        C  0.06660204  0.24490034  0.22474360    -0.55800
C106        C  0.09198384  0.99484819  0.20189239     0.08200
C107        C  0.09313392  0.20167178  0.27636936    -0.55300
C108        C  0.11825649  0.20201729  0.25392995     0.08800
H109        H  0.08806404  0.06732904  0.29655505     0.13300
H110        H  0.14230345  0.24511667  0.21035132    -0.01000
H111        H  0.04412172  0.24463924  0.21291040     0.13600
H112        H  0.08810998  0.17309139  0.29690256     0.13400
C113        C  0.07283180  0.99463805  0.09029410     0.85200
C114        C  0.09197648  0.19972349  0.08382569    -0.55000
C115        C  0.11713751  0.19893625  0.10624227     0.08100
C116        C  0.12096702  0.99221201  0.13304050     0.19100
C117        C  0.06662308  0.99580706  0.13486745    -0.55800
C118        C  0.09198084  0.24437013  0.15774721     0.08400
C119        C  0.09424234  0.03661847  0.08297233    -0.55300
C120        C  0.11930207  0.03508878  0.10547113     0.08800
H121        H  0.08642625  0.17141624  0.06328207     0.13300
H122        H  0.14225659  0.99104236  0.14933992    -0.01000
H123        H  0.04416613  0.99761418  0.14668374     0.13600
H124        H  0.08973653  0.06557471  0.06257442     0.13400
C125        C  0.32282297  0.12076422  0.60264154     0.85200
C126        C  0.34403613  0.16289986  0.61024535    -0.55000
C127        C  0.36913767  0.16173214  0.58779119     0.08100
C128        C  0.37104382  0.11903739  0.56005874     0.19100
C129        C  0.31668857  0.12216416  0.55805814    -0.55800
C130        C  0.34209337  0.12110414  0.53525557     0.08200
C131        C  0.34213636  0.07599988  0.60896697    -0.55300
C132        C  0.36734526  0.07559610  0.58670249     0.08800
H133        H  0.33937388  0.19165177  0.63077188     0.13300
H134        H  0.39236403  0.11814653  0.54380635    -0.01000
H135        H  0.29424803  0.12385164  0.54618056     0.13600
H136        H  0.33666621  0.04746670  0.62934158     0.13400
C137        C  0.32305267  0.12202486  0.42363185     0.85200
C138        C  0.34367969  0.07899439  0.41654754    -0.55000
C139        C  0.36876456  0.07969783  0.43906728     0.08100
C140        C  0.37117634  0.12268866  0.46642259     0.19100
C141        C  0.31679776  0.12157058  0.46819545    -0.55800
C142        C  0.34215191  0.12191203  0.49110492     0.08200
C143        C  0.34301191  0.16594196  0.41692162    -0.55300
C144        C  0.36811362  0.16586673  0.43938002     0.08800
H145        H  0.33881260  0.05028679  0.39606175     0.13300
H146        H  0.39246053  0.12313322  0.48277345    -0.01000
H147        H  0.29431150  0.12079981  0.47998269     0.13600
H148        H  0.33785798  0.19452164  0.39644396     0.13400
O149        O  0.28451399  0.08272700  0.38614380    -0.73100
O150        O  0.22467423  0.08471207  0.64193673    -0.73300
O151        O  0.28522670  0.08480081  0.64389960    -0.73200
O152        O  0.22415339  0.08270092  0.38621621    -0.73200
O153        O  0.22425446  0.16010265  0.38561863    -0.73100
O154        O  0.28352836  0.16174751  0.63736478    -0.73100
O155        O  0.22335541  0.16204654  0.63986887    -0.73100
O156        O  0.28460557  0.16012497  0.38524382    -0.73300
V157        V  0.25429256  0.08370826  0.34692709     1.35200
V158        V  0.25428907  0.15808813  0.34625418     1.35200
C159        C  0.29567661  0.12160852  0.39790723     0.76200
C160        C  0.21289276  0.12245949  0.62869321     0.76200
C161        C  0.29545620  0.12235528  0.62836809     0.76100
C162        C  0.21313433  0.12158108  0.39819854     0.76000
C163        C  0.18551982  0.12074367  0.60294070     0.85200
C164        C  0.16612470  0.07618473  0.60951680    -0.55000
C165        C  0.14100241  0.07563830  0.58704880     0.08100
C166        C  0.13741560  0.11886210  0.56010735     0.19100
C167        C  0.19177155  0.12168842  0.55837251    -0.55800
C168        C  0.16643237  0.12072247  0.53544204     0.08200
C169        C  0.16432721  0.16309185  0.61011443    -0.55300
C170        C  0.13927671  0.16178907  0.58757001     0.08800
H171        H  0.17156227  0.04782802  0.63007572     0.13300
H172        H  0.11614428  0.11786632  0.54374438    -0.01000
H173        H  0.21424465  0.12327951  0.54659716     0.13600
H174        H  0.16889663  0.19200328  0.63052205     0.13400
C175        C  0.18575062  0.12199593  0.42389226     0.85200
C176        C  0.16579912  0.16589088  0.41707717    -0.55000
C177        C  0.14065028  0.16583057  0.43943085     0.08100
C178        C  0.13752464  0.12264659  0.46646975     0.19100
C179        C  0.19190607  0.12154769  0.46848540    -0.55800
C180        C  0.16649150  0.12179710  0.49128621     0.08200
C181        C  0.16515020  0.07894939  0.41673887    -0.55300
C182        C  0.14000386  0.07966891  0.43912081     0.08800
H183        H  0.17099112  0.19444931  0.39659558     0.13300
H184        H  0.11619964  0.12309095  0.48272337    -0.01000
H185        H  0.21436424  0.12075900  0.48036832     0.13600
H186        H  0.17006476  0.05022714  0.39628779     0.13400
C187        C  0.43552435  0.99574370  0.60295808     0.85200
C188        C  0.41613468  0.20117885  0.60953499    -0.55000
C189        C  0.39101415  0.20062201  0.58706499     0.08100
C190        C  0.38742456  0.99384249  0.56011936     0.19100
C191        C  0.44178017  0.99668828  0.55839123    -0.55800
C192        C  0.41644333  0.24571355  0.53545745     0.08200
C193        C  0.41432709  0.03808502  0.61012786    -0.55300
C194        C  0.38927906  0.03677245  0.58757968     0.08800
H195        H  0.42157368  0.17282673  0.63009771     0.13300
H196        H  0.36615440  0.99283774  0.54375393    -0.01000
H197        H  0.46425396  0.99829147  0.54661888     0.13600
H198        H  0.41889206  0.06699993  0.63053396     0.13400
C199        C  0.43576827  0.24702061  0.42390773     0.85200
C200        C  0.41582017  0.04092164  0.41710261    -0.55000
C201        C  0.39067015  0.04085843  0.43945366     0.08100
C202        C  0.38754051  0.24766695  0.46648364     0.19100
C203        C  0.44192220  0.24655602  0.46850210    -0.55800
C204        C  0.41650626  0.99680279  0.49130162     0.08200
C205        C  0.41516378  0.20397992  0.41674527    -0.55300
C206        C  0.39001668  0.20469650  0.43912693     0.08800
H207        H  0.42101334  0.06948411  0.39662523     0.13300
H208        H  0.36621504  0.24811177  0.48273620    -0.01000
H209        H  0.46437992  0.24575794  0.48038685     0.13600
H210        H  0.42007797  0.17526084  0.39629063     0.13400
O211        O  0.03353093  0.03676300  0.63737703    -0.73100
O212        O  0.47426385  0.03512926  0.38561498    -0.73300
O213        O  0.03459276  0.03512118  0.38524381    -0.73200
O214        O  0.47335334  0.03705423  0.63989070    -0.73200
O215        O  0.47467591  0.20971919  0.64195185    -0.73100
O216        O  0.03450172  0.20772266  0.38613157    -0.73100
O217        O  0.47417415  0.20772796  0.38623166    -0.73100
O218        O  0.03521357  0.20981132  0.64387857    -0.73300
V219        V  0.00428055  0.03309269  0.34624994     1.35200
V220        V  0.00427648  0.20871279  0.34692491     1.35200
C221        C  0.04544911  0.24736942  0.62836068     0.76200
C222        C  0.46315138  0.24660798  0.39820895     0.76200
C223        C  0.04566333  0.99660126  0.39790051     0.76100
C224        C  0.46289368  0.99746642  0.62871187     0.76000
C225        C  0.07281469  0.24577733  0.60263125     0.85200
C226        C  0.09402214  0.03792260  0.61022222    -0.55000
C227        C  0.11912363  0.03675268  0.58776923     0.08100
C228        C  0.12103450  0.24404918  0.56004605     0.19100
C229        C  0.06667833  0.24715605  0.55804803    -0.55800
C230        C  0.09208252  0.99609531  0.53524425     0.08200
C231        C  0.09213516  0.20102131  0.60896731    -0.55300
C232        C  0.11734343  0.20061618  0.58670015     0.08800
H233        H  0.08935895  0.06667822  0.63074447     0.13300
H234        H  0.14235411  0.24316096  0.54379258    -0.01000
H235        H  0.04423698  0.24882994  0.54617145     0.13600
H236        H  0.08666767  0.17249202  0.62934667     0.13400
C237        C  0.07303831  0.99700907  0.42362242     0.85200
C238        C  0.09366219  0.20397693  0.41653132    -0.55000
C239        C  0.11874743  0.20467324  0.43904932     0.08100
C240        C  0.12116279  0.99765955  0.46640932     0.19100
C241        C  0.06678438  0.99654934  0.46818595    -0.55800
C242        C  0.09213934  0.24688661  0.49109361     0.08400
C243        C  0.09299864  0.04092406  0.41691506    -0.55300
C244        C  0.11810056  0.04084194  0.43937196     0.08800
H245        H  0.08879290  0.17527318  0.39604237     0.13300
H246        H  0.14244784  0.99809749  0.48275785    -0.01000
H247        H  0.04429842  0.99578521  0.47997423     0.13600
H248        H  0.08784525  0.06950785  0.39644061     0.13400
C249        C  0.32284607  0.13572271  0.93613609     0.85200
C250        C  0.34166756  0.18109490  0.94193316    -0.55000
C251        C  0.36686782  0.18181883  0.91962422     0.08100
C252        C  0.37096326  0.13805191  0.89334392     0.19100
C253        C  0.31664815  0.13333229  0.89157388    -0.55800
C254        C  0.34200098  0.13451035  0.86867039     0.08200
C255        C  0.34457313  0.09427371  0.94405835    -0.55300
C256        C  0.36958774  0.09570675  0.92142172     0.08800
H257        H  0.33601181  0.20959183  0.96224888     0.13300
H258        H  0.39225137  0.13928488  0.87705039    -0.01000
H259        H  0.29421720  0.13062473  0.87978383     0.13600
H260        H  0.34018876  0.06553287  0.96470574     0.13400
C261        C  0.32302010  0.13183606  0.75702204     0.85200
C262        C  0.34373493  0.08904858  0.74980551    -0.55000
C263        C  0.36876999  0.08969711  0.77227929     0.08100
C264        C  0.37111372  0.13252069  0.79988633     0.19100
C265        C  0.31672460  0.13127909  0.80159872    -0.55800
C266        C  0.34206372  0.13213502  0.82454227     0.08200
C267        C  0.34291345  0.17600511  0.75054420    -0.55300
C268        C  0.36805248  0.17587899  0.77309463     0.08800
H269        H  0.33892639  0.06042761  0.72920943     0.13300
H270        H  0.39239478  0.13251990  0.81623325    -0.01000
H271        H  0.29422609  0.13123879  0.81337308     0.13600
H272        H  0.33773531  0.20465575  0.73015392     0.13400
O273        O  0.28372775  0.09103265  0.72218177    -0.73100
O274        O  0.22402747  0.09349586  0.97119466    -0.73300
O275        O  0.28412684  0.09360988  0.97084611    -0.73200
O276        O  0.22358550  0.09066587  0.72018139    -0.73200
O277        O  0.22489913  0.16800124  0.71820151    -0.73100
O278        O  0.28467666  0.17058045  0.97751816    -0.73100
O279        O  0.22393721  0.17055823  0.97718944    -0.73100
O280        O  0.28546571  0.16797764  0.71565977    -0.73300
V281        V  0.25431181  0.08927695  0.68191354     1.35200
V282        V  0.25431004  0.16346393  0.67790330     1.35200
C283        C  0.29569231  0.13041385  0.73117503     0.76200
C284        C  0.21286736  0.13333993  0.96200653     0.76200
C285        C  0.29550482  0.13341727  0.96195850     0.76100
C286        C  0.21317424  0.13023179  0.73148169     0.76000
C287        C  0.18553213  0.13570371  0.93623072     0.85200
C288        C  0.16390631  0.09393008  0.94357884    -0.55000
C289        C  0.13889023  0.09560680  0.92092324     0.08100
C290        C  0.13748586  0.13843996  0.89333162     0.19100
C291        C  0.19182289  0.13417874  0.89169953    -0.55800
C292        C  0.16652019  0.13553743  0.86873662     0.08200
C293        C  0.16658455  0.18080144  0.94254479    -0.55300
C294        C  0.14145079  0.18175601  0.92014422     0.08800
H295        H  0.16828995  0.06494724  0.96399161     0.13300
H296        H  0.11623338  0.13987399  0.87696396    -0.01000
H297        H  0.21428470  0.13176389  0.87997202     0.13600
H298        H  0.17218487  0.20905598  0.96311903     0.13400
C299        C  0.18580234  0.13181087  0.75722974     0.85200
C300        C  0.16575309  0.17549836  0.74981587    -0.55000
C301        C  0.14062350  0.17576520  0.77235961     0.08100
C302        C  0.13760333  0.13306292  0.79987240     0.19100
C303        C  0.19200005  0.13251987  0.80181429    -0.55800
C304        C  0.16659257  0.13340969  0.82462956     0.08200
C305        C  0.16525703  0.08853024  0.75078494    -0.55300
C306        C  0.14011675  0.08957393  0.77304929     0.08800
H307        H  0.17096606  0.20374659  0.72905778     0.13300
H308        H  0.11628616  0.13337465  0.81612866    -0.01000
H309        H  0.21447275  0.13281174  0.81367419     0.13600
H310        H  0.17010300  0.05949225  0.73061140     0.13400
C311        C  0.43552636  0.01070111  0.93624284     0.85200
C312        C  0.41390135  0.21892451  0.94357971    -0.55000
C313        C  0.38888488  0.22061256  0.92092639     0.08100
C314        C  0.38747970  0.01345717  0.89334743     0.19100
C315        C  0.44181651  0.00919586  0.89171261    -0.55800
C316        C  0.41651383  0.26056139  0.86875140     0.08200
C317        C  0.41657912  0.05579605  0.94257331    -0.55300
C318        C  0.39144525  0.05676193  0.92017300     0.08800
H319        H  0.41828412  0.18993336  0.96398536     0.13300
H320        H  0.36622723  0.01489873  0.87698014    -0.01000
H321        H  0.46427806  0.00678104  0.87998462     0.13600
H322        H  0.42218184  0.08404217  0.96315422     0.13400
C323        C  0.43579942  0.25681179  0.75724740     0.85200
C324        C  0.41574969  0.05049810  0.74982547    -0.55000
C325        C  0.39061913  0.05077157  0.77236784     0.08100
C326        C  0.38759851  0.25807663  0.79988798     0.19100
C327        C  0.44199550  0.25753277  0.80183176    -0.55800
C328        C  0.41658720  0.00842945  0.82464548     0.08200
C329        C  0.41525386  0.21352934  0.75081046    -0.55300
C330        C  0.39011216  0.21458020  0.77307323     0.08800
H331        H  0.42096399  0.07874221  0.72906426     0.13300
H332        H  0.36628126  0.25839330  0.81614430    -0.01000
H333        H  0.46446785  0.25782575  0.81369225     0.13600
H334        H  0.42009992  0.18448677  0.73064200     0.13400
O335        O  0.03465960  0.04556145  0.97747248    -0.73100
O336        O  0.47490034  0.04300015  0.71822392    -0.73300
O337        O  0.03546432  0.04297354  0.71567132    -0.73200
O338        O  0.47395849  0.04555022  0.97715333    -0.73200
O339        O  0.47400114  0.21847919  0.97122988    -0.73100
O340        O  0.03373863  0.21602349  0.72216169    -0.73100
O341        O  0.47358466  0.21566464  0.72019609    -0.73100
O342        O  0.03414856  0.21858225  0.97086382    -0.73300
V343        V  0.00431140  0.03847097  0.67791490     1.35200
V344        V  0.00431093  0.21428200  0.68190988     1.35200
C345        C  0.04550690  0.25839429  0.96194309     0.76200
C346        C  0.46317359  0.25523000  0.73150018     0.76200
C347        C  0.04569831  0.00540431  0.73116697     0.76100
C348        C  0.46286334  0.00832828  0.96201029     0.76000
C349        C  0.07284934  0.26070799  0.93612017     0.85200
C350        C  0.09167510  0.05607430  0.94193390    -0.55000
C351        C  0.11687528  0.05680736  0.91962341     0.08100
C352        C  0.12096745  0.26305271  0.89332862     0.19100
C353        C  0.06665177  0.25834366  0.89155704    -0.55800
C354        C  0.09200531  0.00952573  0.86865437     0.08200
C355        C  0.09457372  0.21925123  0.94402614    -0.55300
C356        C  0.11958902  0.22069390  0.92139162     0.08800
H357        H  0.08601943  0.08456328  0.96225719     0.13300
H358        H  0.14225544  0.26429078  0.87703467    -0.01000
H359        H  0.04422078  0.25564184  0.87976607     0.13600
H360        H  0.09018968  0.19050215  0.96466552     0.13400
C361        C  0.07302645  0.00682633  0.75700833     0.85200
C362        C  0.09373721  0.21403281  0.74980123    -0.55000
C363        C  0.11877277  0.21468680  0.77227327     0.08100
C364        C  0.12111961  0.00751931  0.79987096     0.19100
C365        C  0.06673068  0.00628784  0.80158402    -0.55800
C366        C  0.09206933  0.25714696  0.82452698     0.08400
C367        C  0.09292245  0.05098952  0.75051789    -0.55300
C368        C  0.11806057  0.05086872  0.77306940     0.08800
H369        H  0.08892763  0.18540716  0.72921019     0.13300
H370        H  0.14240078  0.00752128  0.81621773    -0.01000
H371        H  0.04423195  0.00625405  0.81335803     0.13600
H372        H  0.08774484  0.07963499  0.73012249     0.13400
C373        C  0.32283830  0.37011049  0.26932246     0.85200
C374        C  0.34310912  0.41363918  0.27614470    -0.55000
C375        C  0.36823147  0.41320212  0.25373481     0.08100
C376        C  0.37100590  0.37003246  0.22664083     0.19100
C377        C  0.31661340  0.36991828  0.22475660    -0.55800
C378        C  0.34199341  0.36986523  0.20190302     0.08200
C379        C  0.34314565  0.32667764  0.27637505    -0.55300
C380        C  0.36826685  0.32702418  0.25393399     0.08800
H381        H  0.33808106  0.44233177  0.29657451     0.13300
H382        H  0.39231371  0.37012743  0.21035718    -0.01000
H383        H  0.29413225  0.36966016  0.21292580     0.13600
H384        H  0.33812245  0.29809574  0.29690663     0.13400
C385        C  0.32283120  0.36964087  0.09030652     0.85200
C386        C  0.34197502  0.32472411  0.08384288    -0.55000
C387        C  0.36713837  0.32394124  0.10625542     0.08100
C388        C  0.37097029  0.36722175  0.13304782     0.19100
C389        C  0.31662643  0.37081970  0.13488113    -0.55800
C390        C  0.34198629  0.36938507  0.15775782     0.08200
C391        C  0.34424265  0.41161952  0.08297726    -0.55300
C392        C  0.36930419  0.41009406  0.10547416     0.08800
H393        H  0.33642356  0.29641316  0.06330332     0.13300
H394        H  0.39226075  0.36605449  0.14934500    -0.01000
H395        H  0.29417037  0.37262922  0.14670040     0.13600
H396        H  0.33973471  0.44057297  0.06257769     0.13400
O397        O  0.28464180  0.33483866  0.04901741    -0.73100
O398        O  0.22404988  0.33169443  0.30773973    -0.73300
O399        O  0.28445743  0.33171915  0.30769365    -0.73200
O400        O  0.22393261  0.33478095  0.04931433    -0.73200
O401        O  0.22402784  0.41184004  0.05532709    -0.73100
O402        O  0.28431264  0.40911955  0.30687099    -0.73100
O403        O  0.22400434  0.40909405  0.30718844    -0.73100
O404        O  0.28411480  0.41181608  0.05566115    -0.73300
V405        V  0.25418813  0.34068193  0.01030893     1.35200
V406        V  0.25418709  0.41471513  0.01620494     1.35200
C407        C  0.29547498  0.37199723  0.06455706     0.76200
C408        C  0.21293317  0.37025729  0.29520066     0.76200
C409        C  0.29546706  0.37028900  0.29502637     0.76100
C410        C  0.21288155  0.37197522  0.06453637     0.76000
C411        C  0.18557040  0.37008234  0.26941231     0.85200
C412        C  0.16530016  0.32654268  0.27623339    -0.55000
C413        C  0.14017678  0.32698211  0.25377176     0.08100
C414        C  0.13741785  0.37015756  0.22666488     0.19100
C415        C  0.19180635  0.37019723  0.22482196    -0.55800
C416        C  0.16642578  0.37018254  0.20193926     0.08200
C417        C  0.16524741  0.41350611  0.27639306    -0.55300
C418        C  0.14015622  0.41316658  0.25392939     0.08800
H419        H  0.17033059  0.29786399  0.29666940     0.13300
H420        H  0.11611349  0.37032953  0.21037167    -0.01000
H421        H  0.21428843  0.37003334  0.21299540     0.13600
H422        H  0.17024582  0.44211344  0.29691726     0.13400
C423        C  0.18553244  0.36961491  0.09030049     0.85200
C424        C  0.16407854  0.41149592  0.08281659    -0.55000
C425        C  0.13903703  0.41005062  0.10533198     0.08100
C426        C  0.13740846  0.36732906  0.13306910     0.19100
C427        C  0.19174969  0.37105497  0.13487538    -0.55800
C428        C  0.16640437  0.36967403  0.15777463     0.08200
C429        C  0.16642633  0.32462416  0.08400205    -0.55300
C430        C  0.14125477  0.32391705  0.10641070     0.08800
H431        H  0.16855490  0.44036558  0.06232390     0.13300
H432        H  0.11611890  0.36622286  0.14936890    -0.01000
H433        H  0.21420682  0.37294916  0.14668548     0.13600
H434        H  0.17198663  0.29625097  0.06352617     0.13400
C435        C  0.43558136  0.24509607  0.26941700     0.85200
C436        C  0.41531330  0.45155470  0.27624172    -0.55000
C437        C  0.39018934  0.45199021  0.25378180     0.08100
C438        C  0.38742784  0.24516299  0.22667258     0.19100
C439        C  0.44181600  0.24520854  0.22482593    -0.55800
C440        C  0.41643440  0.49518803  0.20194472     0.08200
C441        C  0.41525754  0.28851774  0.27639718    -0.55300
C442        C  0.39016645  0.28817474  0.25393410     0.08800
H443        H  0.42034527  0.42287811  0.29667887     0.13300
H444        H  0.36612263  0.24533174  0.21038113    -0.01000
H445        H  0.46429762  0.24504696  0.21299797     0.13600
H446        H  0.42025559  0.31712696  0.29692010     0.13400
C447        C  0.43553521  0.49462444  0.09030356     0.85200
C448        C  0.41408083  0.28650700  0.08282641    -0.55000
C449        C  0.38903996  0.28505809  0.10534321     0.08100
C450        C  0.38741289  0.49233294  0.13307650     0.19100
C451        C  0.44175455  0.49605732  0.13487813    -0.55800
C452        C  0.41641051  0.24467562  0.15777971     0.08200
C453        C  0.41642762  0.44963517  0.08400198    -0.55300
C454        C  0.39125682  0.44892461  0.10641280     0.08800
H455        H  0.41855524  0.31537905  0.06233515     0.13300
H456        H  0.36612443  0.49122488  0.14937837    -0.01000
H457        H  0.46421231  0.49795092  0.14668652     0.13600
H458        H  0.42198738  0.42126468  0.06352326     0.13400
O459        O  0.03430694  0.28411607  0.30687069    -0.73100
O460        O  0.47401221  0.28685069  0.05529057    -0.73300
O461        O  0.03413483  0.28681647  0.05561715    -0.73200
O462        O  0.47401798  0.28411422  0.30718255    -0.73200
O463        O  0.47405599  0.45671463  0.30775298    -0.73100
O464        O  0.03462947  0.45983035  0.04903649    -0.73100
O465        O  0.47395302  0.45978353  0.04934870    -0.73100
O466        O  0.03443547  0.45671571  0.30767988    -0.73300
V467        V  0.00418914  0.28969903  0.01618624     1.35200
V468        V  0.00419278  0.46566355  0.01030726     1.35200
C469        C  0.04545233  0.49528322  0.29501668     0.76200
C470        C  0.46288422  0.49698479  0.06453684     0.76200
C471        C  0.04547810  0.24699563  0.06454429     0.76100
C472        C  0.46294345  0.24527556  0.29520450     0.76000
C473        C  0.07282436  0.49510097  0.26931073     0.85200
C474        C  0.09309344  0.28863369  0.27612818    -0.55000
C475        C  0.11821732  0.28819549  0.25372146     0.08100
C476        C  0.12099475  0.49502186  0.22663286     0.19100
C477        C  0.06660205  0.49490045  0.22474362    -0.55800
C478        C  0.09198385  0.24484818  0.20189242     0.08200
C479        C  0.09313387  0.45167180  0.27636936    -0.55300
C480        C  0.11825642  0.45201727  0.25392993     0.08800
H481        H  0.08806414  0.31732906  0.29655511     0.13300
H482        H  0.14230346  0.49511658  0.21035123    -0.01000
H483        H  0.04412152  0.49463946  0.21291027     0.13600
H484        H  0.08810994  0.42309138  0.29690261     0.13400
C485        C  0.07283179  0.24463803  0.09029410     0.85200
C486        C  0.09197649  0.44972355  0.08382567    -0.55000
C487        C  0.11713750  0.44893622  0.10624225     0.08100
C488        C  0.12096698  0.24221205  0.13304053     0.19100
C489        C  0.06662304  0.24580717  0.13486745    -0.55800
C490        C  0.09198085  0.49437004  0.15774722     0.08400
C491        C  0.09424235  0.28661838  0.08297232    -0.55300
C492        C  0.11930204  0.28508879  0.10547113     0.08800
H493        H  0.08642625  0.42141621  0.06328203     0.13300
H494        H  0.14225652  0.24104249  0.14933995    -0.01000
H495        H  0.04416609  0.24761445  0.14668373     0.13600
H496        H  0.08973653  0.31557481  0.06257423     0.13400
C497        C  0.32282302  0.37076427  0.60264156     0.85200
C498        C  0.34403622  0.41289987  0.61024536    -0.55000
C499        C  0.36913774  0.41173212  0.58779120     0.08100
C500        C  0.37104387  0.36903737  0.56005872     0.19100
C501        C  0.31668867  0.37216416  0.55805818    -0.55800
C502        C  0.34209342  0.37110418  0.53525558     0.08200
C503        C  0.34213638  0.32599989  0.60896699    -0.55300
C504        C  0.36734525  0.32559606  0.58670245     0.08800
H505        H  0.33937400  0.44165187  0.63077191     0.13300
H506        H  0.39236403  0.36814652  0.54380637    -0.01000
H507        H  0.29424792  0.37385160  0.54618050     0.13600
H508        H  0.33666626  0.29746681  0.62934154     0.13400
C509        C  0.32305267  0.37202486  0.42363189     0.85200
C510        C  0.34367974  0.32899454  0.41654756    -0.55000
C511        C  0.36876460  0.32969793  0.43906726     0.08100
C512        C  0.37117641  0.37268875  0.46642260     0.19100
C513        C  0.31679780  0.37157059  0.46819549    -0.55800
C514        C  0.34215197  0.37191210  0.49110493     0.08200
C515        C  0.34301189  0.41594196  0.41692166    -0.55300
C516        C  0.36811362  0.41586677  0.43937998     0.08800
H517        H  0.33881263  0.30028672  0.39606162     0.13300
H518        H  0.39246054  0.37313332  0.48277334    -0.01000
H519        H  0.29431155  0.37079975  0.47998276     0.13600
H520        H  0.33785786  0.44452170  0.39644394     0.13400
O521        O  0.28451404  0.33272691  0.38614377    -0.73100
O522        O  0.22467423  0.33471198  0.64193675    -0.73300
O523        O  0.28522678  0.33480081  0.64389963    -0.73200
O524        O  0.22415336  0.33270092  0.38621620    -0.73200
O525        O  0.22425452  0.41010264  0.38561864    -0.73100
O526        O  0.28352833  0.41174749  0.63736473    -0.73100
O527        O  0.22335544  0.41204645  0.63986887    -0.73100
O528        O  0.28460555  0.41012488  0.38524386    -0.73300
V529        V  0.25429255  0.33370822  0.34692708     1.35200
V530        V  0.25428909  0.40808809  0.34625418     1.35200
C531        C  0.29567660  0.37160845  0.39790728     0.76200
C532        C  0.21289277  0.37245942  0.62869321     0.76200
C533        C  0.29545624  0.37235531  0.62836811     0.76100
C534        C  0.21313433  0.37158112  0.39819854     0.76000
C535        C  0.18551982  0.37074375  0.60294071     0.85200
C536        C  0.16612469  0.32618481  0.60951678    -0.55000
C537        C  0.14100242  0.32563837  0.58704877     0.08100
C538        C  0.13741561  0.36886219  0.56010736     0.19100
C539        C  0.19177155  0.37168856  0.55837251    -0.55800
C540        C  0.16643235  0.37072255  0.53544205     0.08200
C541        C  0.16432720  0.41309196  0.61011445    -0.55300
C542        C  0.13927671  0.41178918  0.58757001     0.08800
H543        H  0.17156227  0.29782808  0.63007568     0.13300
H544        H  0.11614427  0.36786646  0.54374435    -0.01000
H545        H  0.21424462  0.37327975  0.54659716     0.13600
H546        H  0.16889662  0.44200338  0.63052207     0.13400
C547        C  0.18575061  0.37199606  0.42389227     0.85200
C548        C  0.16579908  0.41589092  0.41707719    -0.55000
C549        C  0.14065026  0.41583066  0.43943084     0.08100
C550        C  0.13752459  0.37264663  0.46646974     0.19100
C551        C  0.19190601  0.37154787  0.46848542    -0.55800
C552        C  0.16649145  0.37179712  0.49128622     0.08200
C553        C  0.16515021  0.32894955  0.41673892    -0.55300
C554        C  0.14000387  0.32966896  0.43912080     0.08800
H555        H  0.17099112  0.44444958  0.39659540     0.13300
H556        H  0.11619957  0.37309094  0.48272330    -0.01000
H557        H  0.21436419  0.37075933  0.48036838     0.13600
H558        H  0.17006487  0.30022715  0.39628773     0.13400
C559        C  0.43552434  0.24574372  0.60295810     0.85200
C560        C  0.41613468  0.45117896  0.60953501    -0.55000
C561        C  0.39101419  0.45062201  0.58706498     0.08100
C562        C  0.38742453  0.24384241  0.56011933     0.19100
C563        C  0.44178022  0.24668840  0.55839124    -0.55800
C564        C  0.41644332  0.49571360  0.53545744     0.08200
C565        C  0.41432701  0.28808496  0.61012787    -0.55300
C566        C  0.38927901  0.28677236  0.58757968     0.08800
H567        H  0.42157371  0.42282671  0.63009797     0.13300
H568        H  0.36615448  0.24283761  0.54375398    -0.01000
H569        H  0.46425384  0.24829173  0.54661903     0.13600
H570        H  0.41889193  0.31699998  0.63053399     0.13400
C571        C  0.43576827  0.49702054  0.42390774     0.85200
C572        C  0.41582017  0.29092172  0.41710258    -0.55000
C573        C  0.39067015  0.29085847  0.43945365     0.08100
C574        C  0.38754053  0.49766693  0.46648362     0.19100
C575        C  0.44192226  0.49655593  0.46850212    -0.55800
C576        C  0.41650627  0.24680286  0.49130161     0.08200
C577        C  0.41516379  0.45397984  0.41674522    -0.55300
C578        C  0.39001667  0.45469652  0.43912688     0.08800
H579        H  0.42101331  0.31948412  0.39662535     0.13300
H580        H  0.36621501  0.49811177  0.48273624    -0.01000
H581        H  0.46437978  0.49575789  0.48038676     0.13600
H582        H  0.42007795  0.42526098  0.39629077     0.13400
O583        O  0.03353093  0.28676312  0.63737703    -0.73100
O584        O  0.47426391  0.28512919  0.38561502    -0.73300
O585        O  0.03459276  0.28512118  0.38524377    -0.73200
O586        O  0.47335341  0.28705418  0.63989070    -0.73200
O587        O  0.47467586  0.45971929  0.64195186    -0.73100
O588        O  0.03450176  0.45772272  0.38613154    -0.73100
O589        O  0.47417421  0.45772792  0.38623168    -0.73100
O590        O  0.03521361  0.45981138  0.64387858    -0.73300
V591        V  0.00428053  0.28309270  0.34624993     1.35200
V592        V  0.00427650  0.45871283  0.34692490     1.35200
C593        C  0.04544910  0.49736946  0.62836065     0.76200
C594        C  0.46315138  0.49660793  0.39820893     0.76200
C595        C  0.04566333  0.24660126  0.39790047     0.76100
C596        C  0.46289370  0.24746638  0.62871191     0.76000
C597        C  0.07281466  0.49577734  0.60263122     0.85200
C598        C  0.09402220  0.28792264  0.61022220    -0.55000
C599        C  0.11912367  0.28675270  0.58776919     0.08100
C600        C  0.12103451  0.49404927  0.56004605     0.19100
C601        C  0.06667832  0.49715604  0.55804799    -0.55800
C602        C  0.09208252  0.24609524  0.53524425     0.08200
C603        C  0.09213511  0.45102130  0.60896728    -0.55300
C604        C  0.11734340  0.45061625  0.58670016     0.08800
H605        H  0.08935905  0.31667833  0.63074450     0.13300
H606        H  0.14235403  0.49316108  0.54379270    -0.01000
H607        H  0.04423701  0.49882978  0.54617143     0.13600
H608        H  0.08666762  0.42249200  0.62934656     0.13400
C609        C  0.07303830  0.24700910  0.42362240     0.85200
C610        C  0.09366219  0.45397706  0.41653137    -0.55000
C611        C  0.11874745  0.45467336  0.43904929     0.08100
C612        C  0.12116278  0.24765953  0.46640930     0.19100
C613        C  0.06678437  0.24654932  0.46818593    -0.55800
C614        C  0.09213936  0.49688664  0.49109362     0.08400
C615        C  0.09299866  0.29092414  0.41691503    -0.55300
C616        C  0.11810058  0.29084194  0.43937193     0.08800
H617        H  0.08879286  0.42527313  0.39604235     0.13300
H618        H  0.14244783  0.24809750  0.48275785    -0.01000
H619        H  0.04429836  0.24578509  0.47997423     0.13600
H620        H  0.08784533  0.31950788  0.39644073     0.13400
C621        C  0.32284607  0.38572270  0.93613609     0.85200
C622        C  0.34166763  0.43109482  0.94193316    -0.55000
C623        C  0.36686788  0.43181873  0.91962423     0.08100
C624        C  0.37096326  0.38805186  0.89334390     0.19100
C625        C  0.31664812  0.38333230  0.89157390    -0.55800
C626        C  0.34200094  0.38451040  0.86867039     0.08200
C627        C  0.34457310  0.34427363  0.94405831    -0.55300
C628        C  0.36958772  0.34570670  0.92142170     0.08800
H629        H  0.33601192  0.45959183  0.96224888     0.13300
H630        H  0.39225137  0.38928481  0.87705036    -0.01000
H631        H  0.29421719  0.38062465  0.87978389     0.13600
H632        H  0.34018872  0.31553276  0.96470566     0.13400
C633        C  0.32302011  0.38183622  0.75702204     0.85200
C634        C  0.34373491  0.33904870  0.74980547    -0.55000
C635        C  0.36876999  0.33969714  0.77227927     0.08100
C636        C  0.37111367  0.38252067  0.79988633     0.19100
C637        C  0.31672454  0.38127910  0.80159870    -0.55800
C638        C  0.34206366  0.38213501  0.82454227     0.08200
C639        C  0.34291349  0.42600524  0.75054427    -0.55300
C640        C  0.36805252  0.42587901  0.77309467     0.08800
H641        H  0.33892635  0.31042785  0.72920937     0.13300
H642        H  0.39239481  0.38251981  0.81623340    -0.01000
H643        H  0.29422603  0.38123877  0.81337304     0.13600
H644        H  0.33773539  0.45465600  0.73015401     0.13400
O645        O  0.28372782  0.34103279  0.72218176    -0.73100
O646        O  0.22402742  0.34349586  0.97119471    -0.73300
O647        O  0.28412680  0.34360998  0.97084608    -0.73200
O648        O  0.22358551  0.34066581  0.72018137    -0.73200
O649        O  0.22489918  0.41800117  0.71820155    -0.73100
O650        O  0.28467668  0.42058056  0.97751818    -0.73100
O651        O  0.22393722  0.42055826  0.97718940    -0.73100
O652        O  0.28546573  0.41797779  0.71565972    -0.73300
V653        V  0.25431185  0.33927691  0.68191355     1.35200
V654        V  0.25431005  0.41346389  0.67790329     1.35200
C655        C  0.29569236  0.38041400  0.73117500     0.76200
C656        C  0.21286733  0.38333996  0.96200655     0.76200
C657        C  0.29550481  0.38341737  0.96195850     0.76100
C658        C  0.21317428  0.38023173  0.73148171     0.76000
C659        C  0.18553210  0.38570372  0.93623074     0.85200
C660        C  0.16390628  0.34393013  0.94357883    -0.55000
C661        C  0.13889021  0.34560679  0.92092325     0.08100
C662        C  0.13748584  0.38843989  0.89333160     0.19100
C663        C  0.19182288  0.38417870  0.89169956    -0.55800
C664        C  0.16652019  0.38553736  0.86873662     0.08200
C665        C  0.16658448  0.43080142  0.94254481    -0.55300
C666        C  0.14145073  0.43175591  0.92014421     0.08800
H667        H  0.16828996  0.31494712  0.96399176     0.13300
H668        H  0.11623333  0.38987387  0.87696387    -0.01000
H669        H  0.21428472  0.38176382  0.87997206     0.13600
H670        H  0.17218474  0.45905595  0.96311906     0.13400
C671        C  0.18580237  0.38181090  0.75722976     0.85200
C672        C  0.16575312  0.42549838  0.74981581    -0.55000
C673        C  0.14062351  0.42576521  0.77235955     0.08100
C674        C  0.13760339  0.38306297  0.79987235     0.19100
C675        C  0.19200008  0.38252000  0.80181429    -0.55800
C676        C  0.16659259  0.38340974  0.82462956     0.08200
C677        C  0.16525708  0.33853024  0.75078497    -0.55300
C678        C  0.14011676  0.33957397  0.77304930     0.08800
H679        H  0.17096609  0.45374655  0.72905775     0.13300
H680        H  0.11628610  0.38337471  0.81612873    -0.01000
H681        H  0.21447281  0.38281192  0.81367422     0.13600
H682        H  0.17010306  0.30949232  0.73061152     0.13400
C683        C  0.43552634  0.26070120  0.93624285     0.85200
C684        C  0.41390139  0.46892443  0.94357977    -0.55000
C685        C  0.38888494  0.47061248  0.92092637     0.08100
C686        C  0.38747967  0.26345716  0.89334742     0.19100
C687        C  0.44181647  0.25919603  0.89171260    -0.55800
C688        C  0.41651389  0.51056136  0.86875140     0.08200
C689        C  0.41657907  0.30579607  0.94257335    -0.55300
C690        C  0.39144522  0.30676193  0.92017299     0.08800
H691        H  0.41828409  0.43993349  0.96398538     0.13300
H692        H  0.36622717  0.26489865  0.87698009    -0.01000
H693        H  0.46427802  0.25678136  0.87998461     0.13600
H694        H  0.42218175  0.33404220  0.96315434     0.13400
C695        C  0.43579941  0.50681189  0.75724738     0.85200
C696        C  0.41574972  0.30049802  0.74982552    -0.55000
C697        C  0.39061913  0.30077157  0.77236782     0.08100
C698        C  0.38759853  0.50807667  0.79988803     0.19100
C699        C  0.44199547  0.50753279  0.80183172    -0.55800
C700        C  0.41658716  0.25842936  0.82464547     0.08200
C701        C  0.41525384  0.46352951  0.75081044    -0.55300
C702        C  0.39011220  0.46458022  0.77307328     0.08800
H703        H  0.42096412  0.32874228  0.72906424     0.13300
H704        H  0.36628127  0.50839330  0.81614437    -0.01000
H705        H  0.46446804  0.50782561  0.81369230     0.13600
H706        H  0.42009993  0.43448679  0.73064177     0.13400
O707        O  0.03465963  0.29556143  0.97747254    -0.73100
O708        O  0.47490042  0.29300005  0.71822396    -0.73300
O709        O  0.03546429  0.29297359  0.71567135    -0.73200
O710        O  0.47395850  0.29555025  0.97715330    -0.73200
O711        O  0.47400120  0.46847925  0.97122985    -0.73100
O712        O  0.03373871  0.46602349  0.72216167    -0.73100
O713        O  0.47358464  0.46566476  0.72019612    -0.73100
O714        O  0.03414856  0.46858237  0.97086383    -0.73300
V715        V  0.00431140  0.28847106  0.67791490     1.35200
V716        V  0.00431098  0.46428202  0.68190990     1.35200
C717        C  0.04550689  0.50839441  0.96194306     0.76200
C718        C  0.46317354  0.50523013  0.73150016     0.76200
C719        C  0.04569825  0.25540432  0.73116700     0.76100
C720        C  0.46286331  0.25832832  0.96201030     0.76000
C721        C  0.07284935  0.51070805  0.93612016     0.85200
C722        C  0.09167504  0.30607431  0.94193395    -0.55000
C723        C  0.11687522  0.30680739  0.91962344     0.08100
C724        C  0.12096753  0.51305261  0.89332863     0.19100
C725        C  0.06665183  0.50834365  0.89155704    -0.55800
C726        C  0.09200523  0.25952575  0.86865439     0.08200
C727        C  0.09457367  0.46925122  0.94402615    -0.55300
C728        C  0.11958897  0.47069380  0.92139163     0.08800
H729        H  0.08601936  0.33456323  0.96225725     0.13300
H730        H  0.14225544  0.51429058  0.87703481    -0.01000
H731        H  0.04422085  0.50564177  0.87976604     0.13600
H732        H  0.09018956  0.44050211  0.96466549     0.13400
C733        C  0.07302642  0.25682633  0.75700834     0.85200
C734        C  0.09373722  0.46403290  0.74980122    -0.55000
C735        C  0.11877277  0.46468681  0.77227323     0.08100
C736        C  0.12111957  0.25751936  0.79987099     0.19100
C737        C  0.06673059  0.25628779  0.80158404    -0.55800
C738        C  0.09206938  0.50714688  0.82452699     0.08400
C739        C  0.09292244  0.30098949  0.75051788    -0.55300
C740        C  0.11806055  0.30086877  0.77306942     0.08800
H741        H  0.08892757  0.43540712  0.72921006     0.13300
H742        H  0.14240073  0.25752141  0.81621774    -0.01000
H743        H  0.04423201  0.25625393  0.81335796     0.13600
H744        H  0.08774487  0.32963493  0.73012238     0.13400
C745        C  0.32283832  0.62011053  0.26932245     0.85200
C746        C  0.34310917  0.66363918  0.27614471    -0.55000
C747        C  0.36823154  0.66320211  0.25373484     0.08100
C748        C  0.37100596  0.62003247  0.22664084     0.19100
C749        C  0.31661346  0.61991829  0.22475658    -0.55800
C750        C  0.34199347  0.61986523  0.20190301     0.08200
C751        C  0.34314565  0.57667774  0.27637502    -0.55300
C752        C  0.36826686  0.57702420  0.25393401     0.08800
H753        H  0.33808113  0.69233181  0.29657456     0.13300
H754        H  0.39231380  0.62012746  0.21035719    -0.01000
H755        H  0.29413232  0.61966014  0.21292576     0.13600
H756        H  0.33812236  0.54809567  0.29690670     0.13400
C757        C  0.32283119  0.61964085  0.09030652     0.85200
C758        C  0.34197497  0.57472405  0.08384287    -0.55000
C759        C  0.36713835  0.57394124  0.10625542     0.08100
C760        C  0.37097026  0.61722172  0.13304779     0.19100
C761        C  0.31662638  0.62081964  0.13488115    -0.55800
C762        C  0.34198632  0.61938503  0.15775782     0.08200
C763        C  0.34424269  0.66161942  0.08297728    -0.55300
C764        C  0.36930423  0.66009402  0.10547414     0.08800
H765        H  0.33642352  0.54641316  0.06330338     0.13300
H766        H  0.39226085  0.61605437  0.14934512    -0.01000
H767        H  0.29417054  0.62262913  0.14670031     0.13600
H768        H  0.33973475  0.69057310  0.06257760     0.13400
O769        O  0.28464173  0.58483867  0.04901747    -0.73100
O770        O  0.22404991  0.58169444  0.30773970    -0.73300
O771        O  0.28445745  0.58171909  0.30769369    -0.73200
O772        O  0.22393262  0.58478096  0.04931434    -0.73200
O773        O  0.22402790  0.66184005  0.05532712    -0.73100
O774        O  0.28431257  0.65911949  0.30687095    -0.73100
O775        O  0.22400435  0.65909407  0.30718843    -0.73100
O776        O  0.28411480  0.66181610  0.05566115    -0.73300
V777        V  0.25418813  0.59068188  0.01030895     1.35200
V778        V  0.25418710  0.66471508  0.01620494     1.35200
C779        C  0.29547494  0.62199722  0.06455708     0.76200
C780        C  0.21293321  0.62025729  0.29520062     0.76200
C781        C  0.29546703  0.62028896  0.29502635     0.76100
C782        C  0.21288159  0.62197523  0.06453639     0.76000
C783        C  0.18557043  0.62008232  0.26941229     0.85200
C784        C  0.16530021  0.57654259  0.27623346    -0.55000
C785        C  0.14017680  0.57698203  0.25377177     0.08100
C786        C  0.13741786  0.62015748  0.22666492     0.19100
C787        C  0.19180634  0.62019719  0.22482194    -0.55800
C788        C  0.16642575  0.62018247  0.20193926     0.08200
C789        C  0.16524745  0.66350609  0.27639308    -0.55300
C790        C  0.14015625  0.66316654  0.25392942     0.08800
H791        H  0.17033063  0.54786418  0.29666933     0.13300
H792        H  0.11611347  0.62032943  0.21037169    -0.01000
H793        H  0.21428839  0.62003328  0.21299535     0.13600
H794        H  0.17024587  0.69211340  0.29691727     0.13400
C795        C  0.18553245  0.61961495  0.09030048     0.85200
C796        C  0.16407859  0.66149602  0.08281660    -0.55000
C797        C  0.13903706  0.66005067  0.10533197     0.08100
C798        C  0.13740845  0.61732911  0.13306907     0.19100
C799        C  0.19174963  0.62105493  0.13487536    -0.55800
C800        C  0.16640434  0.61967401  0.15777462     0.08200
C801        C  0.16642631  0.57462420  0.08400201    -0.55300
C802        C  0.14125476  0.57391709  0.10641070     0.08800
H803        H  0.16855499  0.69036570  0.06232400     0.13300
H804        H  0.11611888  0.61622300  0.14936889    -0.01000
H805        H  0.21420691  0.62294912  0.14668559     0.13600
H806        H  0.17198659  0.54625099  0.06352616     0.13400
C807        C  0.43558133  0.49509599  0.26941701     0.85200
C808        C  0.41531337  0.70155466  0.27624177    -0.55000
C809        C  0.39018940  0.70199020  0.25378182     0.08100
C810        C  0.38742776  0.49516295  0.22667257     0.19100
C811        C  0.44181595  0.49520845  0.22482594    -0.55800
C812        C  0.41643443  0.74518797  0.20194472     0.08200
C813        C  0.41525752  0.53851767  0.27639714    -0.55300
C814        C  0.39016641  0.53817471  0.25393411     0.08800
H815        H  0.42034531  0.67287829  0.29667880     0.13300
H816        H  0.36612265  0.49533170  0.21038121    -0.01000
H817        H  0.46429760  0.49504687  0.21299797     0.13600
H818        H  0.42025565  0.56712700  0.29692007     0.13400
C819        C  0.43553526  0.74462438  0.09030358     0.85200
C820        C  0.41408079  0.53650713  0.08282641    -0.55000
C821        C  0.38903993  0.53505814  0.10534321     0.08100
C822        C  0.38741293  0.74233293  0.13307648     0.19100
C823        C  0.44175459  0.74605724  0.13487815    -0.55800
C824        C  0.41641047  0.49467567  0.15777971     0.08200
C825        C  0.41642768  0.69963511  0.08400200    -0.55300
C826        C  0.39125686  0.69892457  0.10641278     0.08800
H827        H  0.41855518  0.56537925  0.06233518     0.13300
H828        H  0.36612446  0.74122486  0.14937838    -0.01000
H829        H  0.46421234  0.74795082  0.14668655     0.13600
H830        H  0.42198747  0.67126463  0.06352331     0.13400
O831        O  0.03430691  0.53411614  0.30687067    -0.73100
O832        O  0.47401220  0.53685076  0.05529058    -0.73300
O833        O  0.03413482  0.53681665  0.05561717    -0.73200
O834        O  0.47401799  0.53411417  0.30718253    -0.73200
O835        O  0.47405592  0.70671471  0.30775301    -0.73100
O836        O  0.03462946  0.70983028  0.04903654    -0.73100
O837        O  0.47395308  0.70978348  0.04934871    -0.73100
O838        O  0.03443549  0.70671565  0.30767989    -0.73300
V839        V  0.00418912  0.53969910  0.01618622     1.35200
V840        V  0.00419279  0.71566350  0.01030728     1.35200
C841        C  0.04545237  0.74528317  0.29501669     0.76200
C842        C  0.46288426  0.74698472  0.06453684     0.76200
C843        C  0.04547808  0.49699580  0.06454432     0.76100
C844        C  0.46294348  0.49527552  0.29520448     0.76000
C845        C  0.07282439  0.74510094  0.26931069     0.85200
C846        C  0.09309340  0.53863371  0.27612821    -0.55000
C847        C  0.11821730  0.53819546  0.25372149     0.08100
C848        C  0.12099481  0.74502182  0.22663284     0.19100
C849        C  0.06660202  0.74490039  0.22474354    -0.55800
C850        C  0.09198382  0.49484817  0.20189242     0.08200
C851        C  0.09313388  0.70167172  0.27636936    -0.55300
C852        C  0.11825646  0.70201723  0.25392993     0.08800
H853        H  0.08806410  0.56732905  0.29655516     0.13300
H854        H  0.14230344  0.74511653  0.21035135    -0.01000
H855        H  0.04412179  0.74463937  0.21291032     0.13600
H856        H  0.08810997  0.67309152  0.29690246     0.13400
C857        C  0.07283179  0.49463809  0.09029414     0.85200
C858        C  0.09197649  0.69972356  0.08382566    -0.55000
C859        C  0.11713750  0.69893620  0.10624223     0.08100
C860        C  0.12096697  0.49221200  0.13304050     0.19100
C861        C  0.06662304  0.49580708  0.13486747    -0.55800
C862        C  0.09198087  0.74436998  0.15774719     0.08400
C863        C  0.09424231  0.53661851  0.08297245    -0.55300
C864        C  0.11930204  0.53508881  0.10547119     0.08800
H865        H  0.08642620  0.67141613  0.06328187     0.13300
H866        H  0.14225665  0.49104240  0.14934007    -0.01000
H867        H  0.04416610  0.49761435  0.14668377     0.13600
H868        H  0.08973645  0.56557496  0.06257454     0.13400
C869        C  0.32282300  0.62076426  0.60264153     0.85200
C870        C  0.34403617  0.66289996  0.61024536    -0.55000
C871        C  0.36913773  0.66173215  0.58779124     0.08100
C872        C  0.37104390  0.61903743  0.56005874     0.19100
C873        C  0.31668861  0.62216414  0.55805815    -0.55800
C874        C  0.34209341  0.62110424  0.53525558     0.08200
C875        C  0.34213636  0.57599987  0.60896697    -0.55300
C876        C  0.36734528  0.57559610  0.58670248     0.08800
H877        H  0.33937394  0.69165173  0.63077167     0.13300
H878        H  0.39236400  0.61814661  0.54380648    -0.01000
H879        H  0.29424805  0.62385144  0.54618057     0.13600
H880        H  0.33666622  0.54746686  0.62934141     0.13400
C881        C  0.32305266  0.62202493  0.42363187     0.85200
C882        C  0.34367968  0.57899448  0.41654757    -0.55000
C883        C  0.36876455  0.57969786  0.43906729     0.08100
C884        C  0.37117635  0.62268868  0.46642260     0.19100
C885        C  0.31679775  0.62157073  0.46819547    -0.55800
C886        C  0.34215192  0.62191213  0.49110493     0.08200
C887        C  0.34301194  0.66594193  0.41692163    -0.55300
C888        C  0.36811363  0.66586674  0.43938000     0.08800
H889        H  0.33881254  0.55028677  0.39606165     0.13300
H890        H  0.39246053  0.62313320  0.48277345    -0.01000
H891        H  0.29431150  0.62080005  0.47998270     0.13600
H892        H  0.33785796  0.69452179  0.39644384     0.13400
O893        O  0.28451399  0.58272704  0.38614381    -0.73100
O894        O  0.22467423  0.58471203  0.64193674    -0.73300
O895        O  0.28522671  0.58480084  0.64389960    -0.73200
O896        O  0.22415337  0.58270094  0.38621622    -0.73200
O897        O  0.22425447  0.66010266  0.38561861    -0.73100
O898        O  0.28352836  0.66174756  0.63736477    -0.73100
O899        O  0.22335541  0.66204651  0.63986888    -0.73100
O900        O  0.28460556  0.66012501  0.38524381    -0.73300
V901        V  0.25429255  0.58370823  0.34692709     1.35200
V902        V  0.25428907  0.65808809  0.34625417     1.35200
C903        C  0.29567660  0.62160856  0.39790724     0.76200
C904        C  0.21289276  0.62245945  0.62869323     0.76200
C905        C  0.29545620  0.62235533  0.62836808     0.76100
C906        C  0.21313433  0.62158111  0.39819854     0.76000
C907        C  0.18551983  0.62074367  0.60294072     0.85200
C908        C  0.16612469  0.57618472  0.60951678    -0.55000
C909        C  0.14100240  0.57563837  0.58704879     0.08100
C910        C  0.13741566  0.61886218  0.56010738     0.19100
C911        C  0.19177158  0.62168847  0.55837253    -0.55800
C912        C  0.16643239  0.62072250  0.53544205     0.08200
C913        C  0.16432724  0.66309190  0.61011445    -0.55300
C914        C  0.13927676  0.66178917  0.58756998     0.08800
H915        H  0.17156225  0.54782795  0.63007563     0.13300
H916        H  0.11614422  0.61786646  0.54374426    -0.01000
H917        H  0.21424467  0.62327971  0.54659718     0.13600
H918        H  0.16889667  0.69200332  0.63052206     0.13400
C919        C  0.18575062  0.62199599  0.42389226     0.85200
C920        C  0.16579911  0.66589086  0.41707717    -0.55000
C921        C  0.14065029  0.66583060  0.43943084     0.08100
C922        C  0.13752465  0.62264663  0.46646976     0.19100
C923        C  0.19190607  0.62154783  0.46848540    -0.55800
C924        C  0.16649151  0.62179716  0.49128622     0.08200
C925        C  0.16515020  0.57894949  0.41673891    -0.55300
C926        C  0.14000388  0.57966894  0.43912083     0.08800
H927        H  0.17099114  0.69444946  0.39659543     0.13300
H928        H  0.11619961  0.62309094  0.48272338    -0.01000
H929        H  0.21436423  0.62075920  0.48036832     0.13600
H930        H  0.17006480  0.55022711  0.39628765     0.13400
C931        C  0.43552435  0.49574375  0.60295807     0.85200
C932        C  0.41613468  0.70117897  0.60953500    -0.55000
C933        C  0.39101416  0.70062207  0.58706502     0.08100
C934        C  0.38742456  0.49384245  0.56011935     0.19100
C935        C  0.44178017  0.49668839  0.55839122    -0.55800
C936        C  0.41644332  0.74571356  0.53545746     0.08200
C937        C  0.41432705  0.53808496  0.61012784    -0.55300
C938        C  0.38927903  0.53677239  0.58757970     0.08800
H939        H  0.42157373  0.67282669  0.63009783     0.13300
H940        H  0.36615439  0.49283762  0.54375392    -0.01000
H941        H  0.46425395  0.49829161  0.54661889     0.13600
H942        H  0.41889205  0.56700005  0.63053406     0.13400
C943        C  0.43576827  0.74702066  0.42390774     0.85200
C944        C  0.41582019  0.54092169  0.41710259    -0.55000
C945        C  0.39067015  0.54085845  0.43945366     0.08100
C946        C  0.38754050  0.74766693  0.46648365     0.19100
C947        C  0.44192219  0.74655594  0.46850211    -0.55800
C948        C  0.41650626  0.49680281  0.49130161     0.08200
C949        C  0.41516376  0.70397999  0.41674524    -0.55300
C950        C  0.39001667  0.70469652  0.43912692     0.08800
H951        H  0.42101333  0.56948400  0.39662536     0.13300
H952        H  0.36621503  0.74811179  0.48273622    -0.01000
H953        H  0.46437992  0.74575777  0.48038686     0.13600
H954        H  0.42007797  0.67526095  0.39629057     0.13400
O955        O  0.03353093  0.53676316  0.63737703    -0.73100
O956        O  0.47426385  0.53512914  0.38561498    -0.73300
O957        O  0.03459274  0.53512122  0.38524381    -0.73200
O958        O  0.47335337  0.53705427  0.63989068    -0.73200
O959        O  0.47467590  0.70971925  0.64195185    -0.73100
O960        O  0.03450172  0.70772267  0.38613157    -0.73100
O961        O  0.47417414  0.70772810  0.38623166    -0.73100
O962        O  0.03521357  0.70981129  0.64387859    -0.73300
V963        V  0.00428054  0.53309272  0.34624995     1.35200
V964        V  0.00427648  0.70871281  0.34692490     1.35200
C965        C  0.04544910  0.74736936  0.62836066     0.76200
C966        C  0.46315138  0.74660810  0.39820895     0.76200
C967        C  0.04566332  0.49660131  0.39790051     0.76100
C968        C  0.46289369  0.49746647  0.62871187     0.76000
C969        C  0.07281469  0.74577728  0.60263124     0.85200
C970        C  0.09402215  0.53792261  0.61022217    -0.55000
C971        C  0.11912361  0.53675276  0.58776920     0.08100
C972        C  0.12103451  0.74404926  0.56004606     0.19100
C973        C  0.06667835  0.74715612  0.55804801    -0.55800
C974        C  0.09208252  0.49609532  0.53524425     0.08200
C975        C  0.09213516  0.70102125  0.60896725    -0.55300
C976        C  0.11734346  0.70061623  0.58670013     0.08800
H977        H  0.08935894  0.56667839  0.63074460     0.13300
H978        H  0.14235416  0.74316116  0.54379260    -0.01000
H979        H  0.04423705  0.74883000  0.54617143     0.13600
H980        H  0.08666768  0.67249193  0.62934655     0.13400
C981        C  0.07303829  0.49700919  0.42362244     0.85200
C982        C  0.09366222  0.70397701  0.41653137    -0.55000
C983        C  0.11874747  0.70467331  0.43904931     0.08100
C984        C  0.12116278  0.49765961  0.46640930     0.19100
C985        C  0.06678437  0.49654945  0.46818596    -0.55800
C986        C  0.09213937  0.74688671  0.49109362     0.08400
C987        C  0.09299863  0.54092421  0.41691503    -0.55300
C988        C  0.11810055  0.54084202  0.43937196     0.08800
H989        H  0.08879291  0.67527307  0.39604232     0.13300
H990        H  0.14244784  0.49809759  0.48275783    -0.01000
H991        H  0.04429841  0.49578542  0.47997425     0.13600
H992        H  0.08784529  0.56950785  0.39644068     0.13400
C993        C  0.32284606  0.63572262  0.93613608     0.85200
C994        C  0.34166755  0.68109482  0.94193319    -0.55000
C995        C  0.36686779  0.68181882  0.91962424     0.08100
C996        C  0.37096326  0.63805195  0.89334393     0.19100
C997        C  0.31664814  0.63333220  0.89157388    -0.55800
C998        C  0.34200097  0.63451040  0.86867039     0.08200
C999        C  0.34457313  0.59427362  0.94405832    -0.55300
C1000       C  0.36958775  0.59570672  0.92142170     0.08800
H1001       H  0.33601179  0.70959170  0.96224893     0.13300
H1002       H  0.39225137  0.63928499  0.87705039    -0.01000
H1003       H  0.29421720  0.63062447  0.87978383     0.13600
H1004       H  0.34018876  0.56553274  0.96470566     0.13400
C1005       C  0.32302013  0.63183615  0.75702203     0.85200
C1006       C  0.34373496  0.58904866  0.74980550    -0.55000
C1007       C  0.36877001  0.58969716  0.77227929     0.08100
C1008       C  0.37111374  0.63252071  0.79988633     0.19100
C1009       C  0.31672461  0.63127918  0.80159871    -0.55800
C1010       C  0.34206372  0.63213503  0.82454227     0.08200
C1011       C  0.34291346  0.67600520  0.75054422    -0.55300
C1012       C  0.36805250  0.67587903  0.77309463     0.08800
H1013       H  0.33892642  0.56042771  0.72920942     0.13300
H1014       H  0.39239481  0.63251993  0.81623327    -0.01000
H1015       H  0.29422610  0.63123903  0.81337306     0.13600
H1016       H  0.33773532  0.70465586  0.73015399     0.13400
O1017       O  0.28372778  0.59103274  0.72218177    -0.73100
O1018       O  0.22402747  0.59349578  0.97119467    -0.73300
O1019       O  0.28412683  0.59360987  0.97084613    -0.73200
O1020       O  0.22358549  0.59066586  0.72018140    -0.73200
O1021       O  0.22489912  0.66800124  0.71820152    -0.73100
O1022       O  0.28467666  0.67058046  0.97751814    -0.73100
O1023       O  0.22393720  0.67055817  0.97718943    -0.73100
O1024       O  0.28546572  0.66797774  0.71565975    -0.73300
V1025       V  0.25431182  0.58927695  0.68191355     1.35200
V1026       V  0.25431003  0.66346395  0.67790330     1.35200
C1027       C  0.29569235  0.63041393  0.73117500     0.76200
C1028       C  0.21286736  0.63333987  0.96200653     0.76200
C1029       C  0.29550481  0.63341725  0.96195850     0.76100
C1030       C  0.21317423  0.63023178  0.73148169     0.76000
C1031       C  0.18553213  0.63570363  0.93623072     0.85200
C1032       C  0.16390629  0.59393009  0.94357884    -0.55000
C1033       C  0.13889024  0.59560675  0.92092325     0.08100
C1034       C  0.13748586  0.63843988  0.89333161     0.19100
C1035       C  0.19182288  0.63417859  0.89169953    -0.55800
C1036       C  0.16652018  0.63553729  0.86873661     0.08200
C1037       C  0.16658456  0.68080137  0.94254478    -0.55300
C1038       C  0.14145080  0.68175593  0.92014420     0.08800
H1039       H  0.16828996  0.56494709  0.96399180     0.13300
H1040       H  0.11623336  0.63987384  0.87696395    -0.01000
H1041       H  0.21428468  0.63176371  0.87997201     0.13600
H1042       H  0.17218486  0.70905589  0.96311907     0.13400
C1043       C  0.18580233  0.63181091  0.75722972     0.85200
C1044       C  0.16575309  0.67549845  0.74981583    -0.55000
C1045       C  0.14062350  0.67576522  0.77235960     0.08100
C1046       C  0.13760333  0.63306294  0.79987239     0.19100
C1047       C  0.19200004  0.63251995  0.80181427    -0.55800
C1048       C  0.16659256  0.63340967  0.82462955     0.08200
C1049       C  0.16525704  0.58853021  0.75078492    -0.55300
C1050       C  0.14011674  0.58957396  0.77304930     0.08800
H1051       H  0.17096601  0.70374656  0.72905785     0.13300
H1052       H  0.11628617  0.63337468  0.81612864    -0.01000
H1053       H  0.21447274  0.63281193  0.81367418     0.13600
H1054       H  0.17010296  0.55949237  0.73061154     0.13400
C1055       C  0.43552637  0.51070116  0.93624284     0.85200
C1056       C  0.41390132  0.71892441  0.94357974    -0.55000
C1057       C  0.38888483  0.72061259  0.92092642     0.08100
C1058       C  0.38747975  0.51345710  0.89334743     0.19100
C1059       C  0.44181654  0.50919595  0.89171261    -0.55800
C1060       C  0.41651381  0.76056134  0.86875140     0.08200
C1061       C  0.41657911  0.55579600  0.94257329    -0.55300
C1062       C  0.39144525  0.55676190  0.92017297     0.08800
H1063       H  0.41828406  0.68993340  0.96398521     0.13300
H1064       H  0.36622716  0.51489857  0.87698000    -0.01000
H1065       H  0.46427810  0.50678131  0.87998462     0.13600
H1066       H  0.42218184  0.58404230  0.96315434     0.13400
C1067       C  0.43579942  0.75681190  0.75724739     0.85200
C1068       C  0.41574970  0.55049814  0.74982550    -0.55000
C1069       C  0.39061913  0.55077159  0.77236785     0.08100
C1070       C  0.38759851  0.75807666  0.79988799     0.19100
C1071       C  0.44199546  0.75753287  0.80183174    -0.55800
C1072       C  0.41658721  0.50842944  0.82464548     0.08200
C1073       C  0.41525386  0.71352947  0.75081047    -0.55300
C1074       C  0.39011217  0.71458025  0.77307322     0.08800
H1075       H  0.42096402  0.57874225  0.72906437     0.13300
H1076       H  0.36628126  0.75839330  0.81614430    -0.01000
H1077       H  0.46446796  0.75782581  0.81369232     0.13600
H1078       H  0.42009995  0.68448672  0.73064189     0.13400
O1079       O  0.03465959  0.54556154  0.97747247    -0.73100
O1080       O  0.47490032  0.54300015  0.71822390    -0.73300
O1081       O  0.03546431  0.54297358  0.71567133    -0.73200
O1082       O  0.47395849  0.54555032  0.97715333    -0.73200
O1083       O  0.47400115  0.71847920  0.97122989    -0.73100
O1084       O  0.03373862  0.71602345  0.72216170    -0.73100
O1085       O  0.47358466  0.71566480  0.72019608    -0.73100
O1086       O  0.03414854  0.71858236  0.97086383    -0.73300
V1087       V  0.00431138  0.53847105  0.67791490     1.35200
V1088       V  0.00431093  0.71428197  0.68190989     1.35200
C1089       C  0.04550690  0.75839439  0.96194309     0.76200
C1090       C  0.46317358  0.75523016  0.73150017     0.76200
C1091       C  0.04569829  0.50540432  0.73116699     0.76100
C1092       C  0.46286334  0.50832835  0.96201030     0.76000
C1093       C  0.07284933  0.76070796  0.93612017     0.85200
C1094       C  0.09167510  0.55607435  0.94193391    -0.55000
C1095       C  0.11687528  0.55680733  0.91962345     0.08100
C1096       C  0.12096744  0.76305258  0.89332863     0.19100
C1097       C  0.06665172  0.75834355  0.89155703    -0.55800
C1098       C  0.09200530  0.50952569  0.86865440     0.08200
C1099       C  0.09457370  0.71925115  0.94402616    -0.55300
C1100       C  0.11958901  0.72069380  0.92139164     0.08800
H1101       H  0.08601943  0.58456338  0.96225712     0.13300
H1102       H  0.14225543  0.76429063  0.87703468    -0.01000
H1103       H  0.04422089  0.75564183  0.87976616     0.13600
H1104       H  0.09018965  0.69050205  0.96466553     0.13400
C1105       C  0.07302642  0.50682636  0.75700836     0.85200
C1106       C  0.09373719  0.71403288  0.74980127    -0.55000
C1107       C  0.11877273  0.71468679  0.77227329     0.08100
C1108       C  0.12111959  0.50751932  0.79987097     0.19100
C1109       C  0.06673066  0.50628775  0.80158406    -0.55800
C1110       C  0.09206932  0.75714701  0.82452698     0.08400
C1111       C  0.09292243  0.55098949  0.75051794    -0.55300
C1112       C  0.11806054  0.55086877  0.77306943     0.08800
H1113       H  0.08892758  0.68540710  0.72921003     0.13300
H1114       H  0.14240078  0.50752136  0.81621773    -0.01000
H1115       H  0.04423194  0.50625385  0.81335808     0.13600
H1116       H  0.08774480  0.57963512  0.73012233     0.13400
C1117       C  0.32283830  0.87011057  0.26932246     0.85200
C1118       C  0.34310909  0.91363930  0.27614468    -0.55000
C1119       C  0.36823146  0.91320223  0.25373481     0.08100
C1120       C  0.37100590  0.87003258  0.22664083     0.19100
C1121       C  0.31661339  0.86991828  0.22475660    -0.55800
C1122       C  0.34199340  0.86986530  0.20190302     0.08200
C1123       C  0.34314568  0.82667780  0.27637504    -0.55300
C1124       C  0.36826686  0.82702428  0.25393398     0.08800
H1125       H  0.33808103  0.94233191  0.29657449     0.13300
H1126       H  0.39231371  0.87012761  0.21035718    -0.01000
H1127       H  0.29413224  0.86966000  0.21292580     0.13600
H1128       H  0.33812242  0.79809574  0.29690670     0.13400
C1129       C  0.32283119  0.86964092  0.09030653     0.85200
C1130       C  0.34197502  0.82472421  0.08384292    -0.55000
C1131       C  0.36713838  0.82394132  0.10625542     0.08100
C1132       C  0.37097028  0.86722181  0.13304784     0.19100
C1133       C  0.31662641  0.87081976  0.13488114    -0.55800
C1134       C  0.34198628  0.86938510  0.15775783     0.08200
C1135       C  0.34424265  0.91161950  0.08297727    -0.55300
C1136       C  0.36930418  0.91009409  0.10547416     0.08800
H1137       H  0.33642352  0.79641313  0.06330324     0.13300
H1138       H  0.39226075  0.86605456  0.14934502    -0.01000
H1139       H  0.29417037  0.87262935  0.14670040     0.13600
H1140       H  0.33973469  0.94057310  0.06257754     0.13400
O1141       O  0.28464179  0.83483866  0.04901742    -0.73100
O1142       O  0.22404987  0.83169437  0.30773974    -0.73300
O1143       O  0.28445744  0.83171911  0.30769364    -0.73200
O1144       O  0.22393260  0.83478102  0.04931432    -0.73200
O1145       O  0.22402782  0.91184009  0.05532710    -0.73100
O1146       O  0.28431264  0.90911952  0.30687101    -0.73100
O1147       O  0.22400442  0.90909399  0.30718839    -0.73100
O1148       O  0.28411479  0.91181606  0.05566114    -0.73300
V1149       V  0.25418812  0.84068194  0.01030893     1.35200
V1150       V  0.25418709  0.91471511  0.01620494     1.35200
C1151       C  0.29547497  0.87199721  0.06455707     0.76200
C1152       C  0.21293320  0.87025724  0.29520065     0.76200
C1153       C  0.29546706  0.87028898  0.29502637     0.76100
C1154       C  0.21288154  0.87197525  0.06453637     0.76000
C1155       C  0.18557041  0.87008238  0.26941230     0.85200
C1156       C  0.16530016  0.82654273  0.27623341    -0.55000
C1157       C  0.14017678  0.82698209  0.25377176     0.08100
C1158       C  0.13741784  0.87015750  0.22666487     0.19100
C1159       C  0.19180635  0.87019729  0.22482195    -0.55800
C1160       C  0.16642577  0.87018247  0.20193926     0.08200
C1161       C  0.16524739  0.91350610  0.27639307    -0.55300
C1162       C  0.14015620  0.91316656  0.25392940     0.08800
H1163       H  0.17033059  0.79786410  0.29666944     0.13300
H1164       H  0.11611348  0.87032940  0.21037166    -0.01000
H1165       H  0.21428842  0.87003346  0.21299539     0.13600
H1166       H  0.17024580  0.94211344  0.29691732     0.13400
C1167       C  0.18553243  0.86961488  0.09030049     0.85200
C1168       C  0.16407854  0.91149591  0.08281661    -0.55000
C1169       C  0.13903703  0.91005059  0.10533198     0.08100
C1170       C  0.13740845  0.86732902  0.13306909     0.19100
C1171       C  0.19174968  0.87105486  0.13487537    -0.55800
C1172       C  0.16640436  0.86967393  0.15777462     0.08200
C1173       C  0.16642632  0.82462411  0.08400205    -0.55300
C1174       C  0.14125475  0.82391702  0.10641069     0.08800
H1175       H  0.16855492  0.94036558  0.06232399     0.13300
H1176       H  0.11611889  0.86622290  0.14936889    -0.01000
H1177       H  0.21420683  0.87294905  0.14668548     0.13600
H1178       H  0.17198662  0.79625089  0.06352624     0.13400
C1179       C  0.43558135  0.74509603  0.26941701     0.85200
C1180       C  0.41531328  0.95155479  0.27624175    -0.55000
C1181       C  0.39018933  0.95199029  0.25378180     0.08100
C1182       C  0.38742783  0.74516294  0.22667260     0.19100
C1183       C  0.44181599  0.74520840  0.22482594    -0.55800
C1184       C  0.41643440  0.99518800  0.20194472     0.08200
C1185       C  0.41525755  0.78851775  0.27639714    -0.55300
C1186       C  0.39016645  0.78817477  0.25393406     0.08800
H1187       H  0.42034524  0.92287821  0.29667895     0.13300
H1188       H  0.36612262  0.74533165  0.21038114    -0.01000
H1189       H  0.46429761  0.74504678  0.21299797     0.13600
H1190       H  0.42025561  0.81712699  0.29692000     0.13400
C1191       C  0.43553521  0.99462430  0.09030356     0.85200
C1192       C  0.41408085  0.78650710  0.08282641    -0.55000
C1193       C  0.38903998  0.78505818  0.10534322     0.08100
C1194       C  0.38741293  0.99233292  0.13307648     0.19100
C1195       C  0.44175457  0.99605721  0.13487813    -0.55800
C1196       C  0.41641051  0.74467561  0.15777971     0.08200
C1197       C  0.41642762  0.94963505  0.08400201    -0.55300
C1198       C  0.39125682  0.94892457  0.10641280     0.08800
H1199       H  0.41855527  0.81537913  0.06233517     0.13300
H1200       H  0.36612437  0.99122482  0.14937850    -0.01000
H1201       H  0.46421235  0.99795071  0.14668651     0.13600
H1202       H  0.42198737  0.92126448  0.06352330     0.13400
O1203       O  0.03430694  0.78411607  0.30687069    -0.73100
O1204       O  0.47401220  0.78685070  0.05529057    -0.73300
O1205       O  0.03413483  0.78681659  0.05561716    -0.73200
O1206       O  0.47401797  0.78411423  0.30718254    -0.73200
O1207       O  0.47405598  0.95671467  0.30775298    -0.73100
O1208       O  0.03462947  0.95983020  0.04903650    -0.73100
O1209       O  0.47395302  0.95978340  0.04934869    -0.73100
O1210       O  0.03443547  0.95671560  0.30767987    -0.73300
V1211       V  0.00418912  0.78969905  0.01618624     1.35200
V1212       V  0.00419277  0.96566344  0.01030726     1.35200
C1213       C  0.04545232  0.99528314  0.29501665     0.76200
C1214       C  0.46288423  0.99698465  0.06453683     0.76200
C1215       C  0.04547810  0.74699575  0.06454430     0.76100
C1216       C  0.46294344  0.74527559  0.29520450     0.76000
C1217       C  0.07282434  0.99510095  0.26931068     0.85200
C1218       C  0.09309343  0.78863373  0.27612818    -0.55000
C1219       C  0.11821733  0.78819544  0.25372147     0.08100
C1220       C  0.12099476  0.99502187  0.22663285     0.19100
C1221       C  0.06660204  0.99490041  0.22474353    -0.55800
C1222       C  0.09198387  0.74484809  0.20189240     0.08200
C1223       C  0.09313387  0.95167185  0.27636936    -0.55300
C1224       C  0.11825641  0.95201727  0.25392992     0.08800
H1225       H  0.08806417  0.81732898  0.29655495     0.13300
H1226       H  0.14230346  0.99511657  0.21035125    -0.01000
H1227       H  0.04412160  0.99463937  0.21291019     0.13600
H1228       H  0.08810994  0.92309144  0.29690268     0.13400
C1229       C  0.07283180  0.74463805  0.09029409     0.85200
C1230       C  0.09197650  0.94972355  0.08382565    -0.55000
C1231       C  0.11713750  0.94893620  0.10624225     0.08100
C1232       C  0.12096701  0.74221197  0.13304051     0.19100
C1233       C  0.06662312  0.74580705  0.13486742    -0.55800
C1234       C  0.09198089  0.99437009  0.15774719     0.08400
C1235       C  0.09424235  0.78661845  0.08297233    -0.55300
C1236       C  0.11930205  0.78508875  0.10547115     0.08800
H1237       H  0.08642626  0.92141625  0.06328198     0.13300
H1238       H  0.14225655  0.74104235  0.14933993    -0.01000
H1239       H  0.04416598  0.74761430  0.14668381     0.13600
H1240       H  0.08973656  0.81557471  0.06257443     0.13400
C1241       C  0.32282301  0.87076431  0.60264156     0.85200
C1242       C  0.34403619  0.91289998  0.61024536    -0.55000
C1243       C  0.36913771  0.91173220  0.58779117     0.08100
C1244       C  0.37104387  0.86903745  0.56005872     0.19100
C1245       C  0.31668866  0.87216409  0.55805818    -0.55800
C1246       C  0.34209341  0.87110418  0.53525558     0.08200
C1247       C  0.34213639  0.82599999  0.60896699    -0.55300
C1248       C  0.36734525  0.82559613  0.58670246     0.08800
H1249       H  0.33937400  0.94165181  0.63077180     0.13300
H1250       H  0.39236403  0.86814659  0.54380637    -0.01000
H1251       H  0.29424791  0.87385135  0.54618050     0.13600
H1252       H  0.33666624  0.79746675  0.62934165     0.13400
C1253       C  0.32305267  0.87202489  0.42363188     0.85200
C1254       C  0.34367970  0.82899448  0.41654757    -0.55000
C1255       C  0.36876457  0.82969786  0.43906726     0.08100
C1256       C  0.37117641  0.87268867  0.46642260     0.19100
C1257       C  0.31679780  0.87157065  0.46819549    -0.55800
C1258       C  0.34215197  0.87191205  0.49110493     0.08200
C1259       C  0.34301191  0.91594192  0.41692165    -0.55300
C1260       C  0.36811363  0.91586673  0.43937999     0.08800
H1261       H  0.33881257  0.80028669  0.39606166     0.13300
H1262       H  0.39246054  0.87313319  0.48277333    -0.01000
H1263       H  0.29431155  0.87079995  0.47998275     0.13600
H1264       H  0.33785791  0.94452170  0.39644388     0.13400
O1265       O  0.28451404  0.83272699  0.38614377    -0.73100
O1266       O  0.22467423  0.83471203  0.64193676    -0.73300
O1267       O  0.28522677  0.83480085  0.64389963    -0.73200
O1268       O  0.22415338  0.83270085  0.38621621    -0.73200
O1269       O  0.22425453  0.91010257  0.38561863    -0.73100
O1270       O  0.28352833  0.91174755  0.63736474    -0.73100
O1271       O  0.22335542  0.91204652  0.63986885    -0.73100
O1272       O  0.28460554  0.91012496  0.38524387    -0.73300
V1273       V  0.25429256  0.83370817  0.34692708     1.35200
V1274       V  0.25428911  0.90808803  0.34625417     1.35200
C1275       C  0.29567660  0.87160853  0.39790728     0.76200
C1276       C  0.21289277  0.87245944  0.62869321     0.76200
C1277       C  0.29545623  0.87235535  0.62836811     0.76100
C1278       C  0.21313437  0.87158105  0.39819856     0.76000
C1279       C  0.18551981  0.87074364  0.60294071     0.85200
C1280       C  0.16612470  0.82618468  0.60951679    -0.55000
C1281       C  0.14100241  0.82563829  0.58704880     0.08100
C1282       C  0.13741560  0.86886208  0.56010736     0.19100
C1283       C  0.19177155  0.87168841  0.55837251    -0.55800
C1284       C  0.16643235  0.87072243  0.53544205     0.08200
C1285       C  0.16432719  0.91309182  0.61011444    -0.55300
C1286       C  0.13927670  0.91178906  0.58757000     0.08800
H1287       H  0.17156226  0.79782794  0.63007568     0.13300
H1288       H  0.11614427  0.86786630  0.54374434    -0.01000
H1289       H  0.21424461  0.87327963  0.54659716     0.13600
H1290       H  0.16889660  0.94200324  0.63052207     0.13400
C1291       C  0.18575062  0.87199601  0.42389228     0.85200
C1292       C  0.16579912  0.91589094  0.41707716    -0.55000
C1293       C  0.14065029  0.91583064  0.43943084     0.08100
C1294       C  0.13752460  0.87264667  0.46646973     0.19100
C1295       C  0.19190602  0.87154778  0.46848543    -0.55800
C1296       C  0.16649145  0.87179715  0.49128622     0.08200
C1297       C  0.16515021  0.82894951  0.41673893    -0.55300
C1298       C  0.14000385  0.82966899  0.43912079     0.08800
H1299       H  0.17099112  0.94444943  0.39659553     0.13300
H1300       H  0.11619958  0.87309108  0.48272330    -0.01000
H1301       H  0.21436419  0.87075906  0.48036839     0.13600
H1302       H  0.17006486  0.80022706  0.39628781     0.13400
C1303       C  0.43552434  0.74574378  0.60295810     0.85200
C1304       C  0.41613466  0.95117890  0.60953504    -0.55000
C1305       C  0.39101415  0.95062207  0.58706500     0.08100
C1306       C  0.38742452  0.74384245  0.56011934     0.19100
C1307       C  0.44178021  0.74668838  0.55839123    -0.55800
C1308       C  0.41644332  0.99571353  0.53545744     0.08200
C1309       C  0.41432702  0.78808505  0.61012784    -0.55300
C1310       C  0.38927901  0.78677243  0.58757966     0.08800
H1311       H  0.42157363  0.92282676  0.63009783     0.13300
H1312       H  0.36615446  0.74283760  0.54375400    -0.01000
H1313       H  0.46425384  0.74829161  0.54661902     0.13600
H1314       H  0.41889195  0.81700006  0.63053392     0.13400
C1315       C  0.43576828  0.99702059  0.42390774     0.85200
C1316       C  0.41582015  0.79092169  0.41710263    -0.55000
C1317       C  0.39067013  0.79085844  0.43945365     0.08100
C1318       C  0.38754053  0.99766690  0.46648363     0.19100
C1319       C  0.44192225  0.99655599  0.46850213    -0.55800
C1320       C  0.41650626  0.74680281  0.49130162     0.08200
C1321       C  0.41516379  0.95397991  0.41674525    -0.55300
C1322       C  0.39001667  0.95469650  0.43912690     0.08800
H1323       H  0.42101331  0.81948425  0.39662524     0.13300
H1324       H  0.36621500  0.99811174  0.48273626    -0.01000
H1325       H  0.46437978  0.99575798  0.48038677     0.13600
H1326       H  0.42007799  0.92526091  0.39629065     0.13400
O1327       O  0.03353093  0.78676307  0.63737701    -0.73100
O1328       O  0.47426390  0.78512931  0.38561501    -0.73300
O1329       O  0.03459276  0.78512117  0.38524378    -0.73200
O1330       O  0.47335340  0.78705425  0.63989070    -0.73200
O1331       O  0.47467586  0.95971924  0.64195186    -0.73100
O1332       O  0.03450175  0.95772267  0.38613155    -0.73100
O1333       O  0.47417420  0.95772804  0.38623168    -0.73100
O1334       O  0.03521361  0.95981122  0.64387858    -0.73300
V1335       V  0.00428052  0.78309270  0.34624994     1.35200
V1336       V  0.00427649  0.95871280  0.34692491     1.35200
C1337       C  0.04544910  0.99736931  0.62836066     0.76200
C1338       C  0.46315138  0.99660803  0.39820893     0.76200
C1339       C  0.04566333  0.74660128  0.39790048     0.76100
C1340       C  0.46289370  0.74746645  0.62871191     0.76000
C1341       C  0.07281466  0.99577726  0.60263122     0.85200
C1342       C  0.09402219  0.78792253  0.61022221    -0.55000
C1343       C  0.11912365  0.78675269  0.58776922     0.08100
C1344       C  0.12103451  0.99404920  0.56004607     0.19100
C1345       C  0.06667831  0.99715608  0.55804800    -0.55800
C1346       C  0.09208255  0.74609538  0.53524425     0.08200
C1347       C  0.09213510  0.95102117  0.60896728    -0.55300
C1348       C  0.11734340  0.95061615  0.58670014     0.08800
H1349       H  0.08935899  0.81667837  0.63074467     0.13300
H1350       H  0.14235402  0.99316103  0.54379272    -0.01000
H1351       H  0.04423702  0.99883000  0.54617143     0.13600
H1352       H  0.08666765  0.92249201  0.62934645     0.13400
C1353       C  0.07303831  0.74700912  0.42362241     0.85200
C1354       C  0.09366223  0.95397693  0.41653133    -0.55000
C1355       C  0.11874747  0.95467329  0.43904930     0.08100
C1356       C  0.12116280  0.74765961  0.46640930     0.19100
C1357       C  0.06678438  0.74654943  0.46818594    -0.55800
C1358       C  0.09213937  0.99688662  0.49109362     0.08400
C1359       C  0.09299866  0.79092414  0.41691501    -0.55300
C1360       C  0.11810057  0.79084200  0.43937194     0.08800
H1361       H  0.08879299  0.92527311  0.39604233     0.13300
H1362       H  0.14244787  0.74809757  0.48275788    -0.01000
H1363       H  0.04429837  0.74578530  0.47997425     0.13600
H1364       H  0.08784533  0.81950782  0.39644065     0.13400
C1365       C  0.32284607  0.88572270  0.93613609     0.85200
C1366       C  0.34166760  0.93109491  0.94193320    -0.55000
C1367       C  0.36686785  0.93181879  0.91962423     0.08100
C1368       C  0.37096325  0.88805192  0.89334392     0.19100
C1369       C  0.31664812  0.88333235  0.89157391    -0.55800
C1370       C  0.34200093  0.88451040  0.86867040     0.08200
C1371       C  0.34457310  0.84427364  0.94405828    -0.55300
C1372       C  0.36958774  0.84570677  0.92142171     0.08800
H1373       H  0.33601193  0.95959176  0.96224878     0.13300
H1374       H  0.39225135  0.88928488  0.87705036    -0.01000
H1375       H  0.29421717  0.88062472  0.87978389     0.13600
H1376       H  0.34018871  0.81553275  0.96470554     0.13400
C1377       C  0.32302010  0.88183610  0.75702204     0.85200
C1378       C  0.34373490  0.83904857  0.74980551    -0.55000
C1379       C  0.36876997  0.83969709  0.77227929     0.08100
C1380       C  0.37111365  0.88252063  0.79988633     0.19100
C1381       C  0.31672453  0.88127912  0.80159870    -0.55800
C1382       C  0.34206365  0.88213497  0.82454228     0.08200
C1383       C  0.34291349  0.92600512  0.75054422    -0.55300
C1384       C  0.36805253  0.92587894  0.77309464     0.08800
H1385       H  0.33892636  0.81042769  0.72920942     0.13300
H1386       H  0.39239480  0.88251978  0.81623340    -0.01000
H1387       H  0.29422601  0.88123896  0.81337304     0.13600
H1388       H  0.33773538  0.95465583  0.73015395     0.13400
O1389       O  0.28372781  0.84103266  0.72218176    -0.73100
O1390       O  0.22402741  0.84349595  0.97119471    -0.73300
O1391       O  0.28412680  0.84360989  0.97084607    -0.73200
O1392       O  0.22358550  0.84066590  0.72018136    -0.73200
O1393       O  0.22489916  0.91800128  0.71820156    -0.73100
O1394       O  0.28467667  0.92058045  0.97751819    -0.73100
O1395       O  0.22393721  0.92055834  0.97718940    -0.73100
O1396       O  0.28546573  0.91797767  0.71565973    -0.73300
V1397       V  0.25431184  0.83927693  0.68191354     1.35200
V1398       V  0.25431004  0.91346393  0.67790329     1.35200
C1399       C  0.29569235  0.88041387  0.73117500     0.76200
C1400       C  0.21286732  0.88334002  0.96200656     0.76200
C1401       C  0.29550481  0.88341728  0.96195850     0.76100
C1402       C  0.21317427  0.88023182  0.73148171     0.76000
C1403       C  0.18553208  0.88570375  0.93623075     0.85200
C1404       C  0.16390629  0.84393007  0.94357887    -0.55000
C1405       C  0.13889022  0.84560673  0.92092323     0.08100
C1406       C  0.13748584  0.88843988  0.89333162     0.19100
C1407       C  0.19182287  0.88417869  0.89169957    -0.55800
C1408       C  0.16652018  0.88553740  0.86873662     0.08200
C1409       C  0.16658447  0.93080146  0.94254479    -0.55300
C1410       C  0.14145072  0.93175593  0.92014421     0.08800
H1411       H  0.16828995  0.81494725  0.96399165     0.13300
H1412       H  0.11623332  0.88987381  0.87696388    -0.01000
H1413       H  0.21428469  0.88176375  0.87997208     0.13600
H1414       H  0.17218474  0.95905606  0.96311900     0.13400
C1415       C  0.18580236  0.88181089  0.75722975     0.85200
C1416       C  0.16575313  0.92549841  0.74981580    -0.55000
C1417       C  0.14062351  0.92576516  0.77235958     0.08100
C1418       C  0.13760339  0.88306291  0.79987235     0.19100
C1419       C  0.19200007  0.88251996  0.80181428    -0.55800
C1420       C  0.16659258  0.88340975  0.82462956     0.08200
C1421       C  0.16525710  0.83853015  0.75078492    -0.55300
C1422       C  0.14011679  0.83957389  0.77304931     0.08800
H1423       H  0.17096605  0.95374645  0.72905790     0.13300
H1424       H  0.11628611  0.88337465  0.81612872    -0.01000
H1425       H  0.21447280  0.88281185  0.81367422     0.13600
H1426       H  0.17010304  0.80949238  0.73061159     0.13400
C1427       C  0.43552632  0.76070112  0.93624285     0.85200
C1428       C  0.41390136  0.96892442  0.94357974    -0.55000
C1429       C  0.38888490  0.97061254  0.92092639     0.08100
C1430       C  0.38747966  0.76345719  0.89334742     0.19100
C1431       C  0.44181646  0.75919588  0.89171260    -0.55800
C1432       C  0.41651387  0.01056140  0.86875140     0.08200
C1433       C  0.41657908  0.80579597  0.94257333    -0.55300
C1434       C  0.39144525  0.80676197  0.92017297     0.08800
H1435       H  0.41828407  0.93993341  0.96398528     0.13300
H1436       H  0.36622716  0.76489880  0.87698010    -0.01000
H1437       H  0.46427801  0.75678117  0.87998460     0.13600
H1438       H  0.42218181  0.83404222  0.96315448     0.13400
C1439       C  0.43579942  0.00681189  0.75724739     0.85200
C1440       C  0.41574972  0.80049814  0.74982550    -0.55000
C1441       C  0.39061913  0.80077159  0.77236784     0.08100
C1442       C  0.38759854  0.00807664  0.79988801     0.19100
C1443       C  0.44199548  0.00753285  0.80183173    -0.55800
C1444       C  0.41658715  0.75842942  0.82464547     0.08200
C1445       C  0.41525391  0.96352939  0.75081045    -0.55300
C1446       C  0.39011222  0.96458017  0.77307327     0.08800
H1447       H  0.42096407  0.82874224  0.72906434     0.13300
H1448       H  0.36628130  0.00839331  0.81614434    -0.01000
H1449       H  0.46446804  0.00782575  0.81369232     0.13600
H1450       H  0.42010000  0.93448691  0.73064198     0.13400
O1451       O  0.03465962  0.79556153  0.97747253    -0.73100
O1452       O  0.47490041  0.79300020  0.71822396    -0.73300
O1453       O  0.03546428  0.79297354  0.71567134    -0.73200
O1454       O  0.47395847  0.79555026  0.97715329    -0.73200
O1455       O  0.47400119  0.96847917  0.97122984    -0.73100
O1456       O  0.03373871  0.96602345  0.72216168    -0.73100
O1457       O  0.47358464  0.96566474  0.72019612    -0.73100
O1458       O  0.03414855  0.96858227  0.97086381    -0.73300
V1459       V  0.00431140  0.78847100  0.67791490     1.35200
V1460       V  0.00431097  0.96428195  0.68190991     1.35200
C1461       C  0.04550689  0.00839432  0.96194305     0.76200
C1462       C  0.46317356  0.00523010  0.73150018     0.76200
C1463       C  0.04569824  0.75540430  0.73116701     0.76100
C1464       C  0.46286330  0.75832828  0.96201030     0.76000
C1465       C  0.07284935  0.01070800  0.93612013     0.85200
C1466       C  0.09167504  0.80607428  0.94193391    -0.55000
C1467       C  0.11687524  0.80680730  0.91962343     0.08100
C1468       C  0.12096753  0.01305265  0.89332860     0.19100
C1469       C  0.06665184  0.00834359  0.89155700    -0.55800
C1470       C  0.09200522  0.75952563  0.86865440     0.08200
C1471       C  0.09457369  0.96925127  0.94402611    -0.55300
C1472       C  0.11958898  0.97069383  0.92139161     0.08800
H1473       H  0.08601936  0.83456322  0.96225712     0.13300
H1474       H  0.14225546  0.01429063  0.87703478    -0.01000
H1475       H  0.04422087  0.00564166  0.87976600     0.13600
H1476       H  0.09018957  0.94050202  0.96466559     0.13400
C1477       C  0.07302640  0.75682635  0.75700835     0.85200
C1478       C  0.09373726  0.96403286  0.74980123    -0.55000
C1479       C  0.11877278  0.96468675  0.77227326     0.08100
C1480       C  0.12111956  0.75751932  0.79987100     0.19100
C1481       C  0.06673058  0.75628791  0.80158405    -0.55800
C1482       C  0.09206939  0.00714695  0.82452696     0.08400
C1483       C  0.09292246  0.80098943  0.75051789    -0.55300
C1484       C  0.11806058  0.80086870  0.77306940     0.08800
H1485       H  0.08892765  0.93540700  0.72921001     0.13300
H1486       H  0.14240073  0.75752128  0.81621775    -0.01000
H1487       H  0.04423200  0.75625402  0.81335796     0.13600
H1488       H  0.08774487  0.82963504  0.73012228     0.13400
C1489       C  0.82283074  0.12011462  0.26930527     0.85200
C1490       C  0.84310510  0.16363961  0.27612134    -0.55000
C1491       C  0.86822586  0.16319409  0.25371007     0.08100
C1492       C  0.87099710  0.12001979  0.22662187     0.19100
C1493       C  0.81660465  0.11991846  0.22473866    -0.55800
C1494       C  0.84198523  0.11985842  0.20188469     0.08200
C1495       C  0.84313383  0.07667848  0.27636109    -0.55300
C1496       C  0.86825373  0.07701571  0.25391836     0.08800
H1497       H  0.83808058  0.19233740  0.29654801     0.13300
H1498       H  0.89230555  0.12010613  0.21033963    -0.01000
H1499       H  0.79412353  0.11966951  0.21290814     0.13600
H1500       H  0.83810878  0.04810108  0.29689630     0.13400
C1501       C  0.82282980  0.11965822  0.09028850     0.85200
C1502       C  0.84198263  0.07475334  0.08381607    -0.55000
C1503       C  0.86714540  0.07397577  0.10622856     0.08100
C1504       C  0.87096709  0.11724905  0.13303125     0.19100
C1505       C  0.81662212  0.12081934  0.13486207    -0.55800
C1506       C  0.84198096  0.11938984  0.15773987     0.08200
C1507       C  0.84423234  0.16165000  0.08296888    -0.55300
C1508       C  0.86929316  0.16012880  0.10546662     0.08800
H1509       H  0.83643531  0.04644251  0.06327386     0.13300
H1510       H  0.89225767  0.11608820  0.14932849    -0.01000
H1511       H  0.79416518  0.12261300  0.14667999     0.13600
H1512       H  0.83972151  0.19060428  0.06257085     0.13400
O1513       O  0.78464655  0.08483517  0.04900968    -0.73100
O1514       O  0.72404198  0.08172265  0.30775338    -0.73300
O1515       O  0.78444448  0.08173861  0.30767791    -0.73200
O1516       O  0.72394090  0.08477879  0.04931992    -0.73200
O1517       O  0.72402593  0.16184382  0.05528359    -0.73100
O1518       O  0.78432447  0.15913942  0.30687438    -0.73100
O1519       O  0.72402021  0.15912193  0.30716110    -0.73100
O1520       O  0.78411314  0.16181554  0.05563165    -0.73300
V1521       V  0.75419056  0.09065524  0.01030597     1.35200
V1522       V  0.75419032  0.16469263  0.01616938     1.35200
C1523       C  0.79547556  0.12200224  0.06453893     0.76200
C1524       C  0.71294141  0.12028383  0.29518796     0.76200
C1525       C  0.79546343  0.12030431  0.29501561     0.76100
C1526       C  0.71288420  0.12198414  0.06451604     0.76000
C1527       C  0.68558363  0.12010395  0.26939286     0.85200
C1528       C  0.66532270  0.07655264  0.27620701    -0.55000
C1529       C  0.64019921  0.07698552  0.25374829     0.08100
C1530       C  0.63743111  0.12016392  0.22664663     0.19100
C1531       C  0.69181971  0.12023251  0.22480141    -0.55800
C1532       C  0.66643790  0.12020638  0.20191951     0.08200
C1533       C  0.66525317  0.16351526  0.27638036    -0.55300
C1534       C  0.64016318  0.16317003  0.25391525     0.08800
H1535       H  0.67035634  0.04787396  0.29664179     0.13300
H1536       H  0.61612572  0.12032776  0.21035593    -0.01000
H1537       H  0.71430149  0.12008351  0.21297405     0.13600
H1538       H  0.67024798  0.19212260  0.29690654     0.13400
C1539       C  0.68553559  0.11963819  0.09027920     0.85200
C1540       C  0.66408708  0.16152823  0.08280017    -0.55000
C1541       C  0.63904713  0.16008824  0.10531938     0.08100
C1542       C  0.63741450  0.11736391  0.13305216     0.19100
C1543       C  0.69175628  0.12107157  0.13485287    -0.55800
C1544       C  0.66641275  0.11969838  0.15775478     0.08200
C1545       C  0.66642307  0.07465548  0.08397832    -0.55300
C1546       C  0.64125262  0.07395433  0.10638830     0.08800
H1547       H  0.66856452  0.19039661  0.06230668     0.13300
H1548       H  0.61612567  0.11626379  0.14935352    -0.01000
H1549       H  0.71421453  0.12295647  0.14666055     0.13600
H1550       H  0.67197979  0.04628116  0.06350185     0.13400
C1551       C  0.93556811  0.99509285  0.26940238     0.85200
C1552       C  0.91530531  0.20154394  0.27621477    -0.55000
C1553       C  0.89018377  0.20197946  0.25375249     0.08100
C1554       C  0.88741831  0.99515968  0.22665223     0.19100
C1555       C  0.94180669  0.99522171  0.22481230    -0.55800
C1556       C  0.91642656  0.24520141  0.20192816     0.08200
C1557       C  0.91523970  0.03850648  0.27638953    -0.55300
C1558       C  0.89015078  0.03816392  0.25392273     0.08800
H1559       H  0.92033689  0.17286457  0.29664931     0.13300
H1560       H  0.86611374  0.99532617  0.21035971    -0.01000
H1561       H  0.96428928  0.99507051  0.21298737     0.13600
H1562       H  0.92023465  0.06711247  0.29691660     0.13400
C1563       C  0.93553386  0.24463222  0.09029060     0.85200
C1564       C  0.91408727  0.03652395  0.08280603    -0.55000
C1565       C  0.88904531  0.03508992  0.10532242     0.08100
C1566       C  0.88740890  0.24236865  0.13305814     0.19100
C1567       C  0.94175088  0.24607015  0.13486533    -0.55800
C1568       C  0.91640522  0.99470009  0.15776391     0.08200
C1569       C  0.91641959  0.19965045  0.08399247    -0.55300
C1570       C  0.89124712  0.19895567  0.10639911     0.08800
H1571       H  0.91856822  0.06538951  0.06231150     0.13300
H1572       H  0.86611880  0.24127294  0.14935701    -0.01000
H1573       H  0.96420824  0.24795155  0.14667594     0.13600
H1574       H  0.92197622  0.17127218  0.06351963     0.13400
O1575       O  0.53432595  0.03414230  0.30686761    -0.73100
O1576       O  0.97404748  0.03683297  0.05533264    -0.73300
O1577       O  0.53409960  0.03681337  0.05566878    -0.73200
O1578       O  0.97400097  0.03410409  0.30717793    -0.73200
O1579       O  0.97403098  0.20670432  0.30774681    -0.73100
O1580       O  0.53466085  0.20984127  0.04898635    -0.73100
O1581       O  0.97392149  0.20977703  0.04929410    -0.73100
O1582       O  0.53446186  0.20674210  0.30768397    -0.73300
V1583       V  0.50418977  0.03970794  0.01619090     1.35200
V1584       V  0.50418530  0.21567308  0.01030997     1.35200
C1585       C  0.54547404  0.24530997  0.29501563     0.76200
C1586       C  0.96288475  0.24697556  0.06452805     0.76200
C1587       C  0.54547754  0.99700115  0.06454294     0.76100
C1588       C  0.96292536  0.99526823  0.29519560     0.76000
C1589       C  0.57284305  0.24512403  0.26930453     0.85200
C1590       C  0.59312044  0.03864524  0.27612396    -0.55000
C1591       C  0.61824091  0.03819964  0.25371037     0.08100
C1592       C  0.62100891  0.24502853  0.22661797     0.19100
C1593       C  0.56661640  0.24493559  0.22473810    -0.55800
C1594       C  0.59199621  0.99487381  0.20188255     0.08200
C1595       C  0.59314494  0.20168384  0.27635419    -0.55300
C1596       C  0.61826476  0.20202118  0.25391087     0.08800
H1597       H  0.58809693  0.06734129  0.29655234     0.13300
H1598       H  0.64231640  0.24511473  0.21033356    -0.01000
H1599       H  0.54413485  0.24468967  0.21290869     0.13600
H1600       H  0.58811982  0.17310452  0.29688777     0.13400
C1601       C  0.57283378  0.99465652  0.09028818     0.85200
C1602       C  0.59198241  0.19974686  0.08382131    -0.55000
C1603       C  0.61714684  0.19897179  0.10623009     0.08100
C1604       C  0.62097372  0.99225059  0.13302573     0.19100
C1605       C  0.56662952  0.99583130  0.13486232    -0.55800
C1606       C  0.59198964  0.24440203  0.15773752     0.08400
C1607       C  0.59423875  0.03664284  0.08295815    -0.55300
C1608       C  0.61930053  0.03512447  0.10545482     0.08800
H1609       H  0.58643286  0.17143315  0.06328332     0.13300
H1610       H  0.64226524  0.99109006  0.14932090    -0.01000
H1611       H  0.54417345  0.99763120  0.14668246     0.13600
H1612       H  0.58972690  0.06559401  0.06255761     0.13400
C1613       C  0.82281408  0.12081173  0.60265607     0.85200
C1614       C  0.84401207  0.16296999  0.61024492    -0.55000
C1615       C  0.86911301  0.16181116  0.58779122     0.08100
C1616       C  0.87103256  0.11910595  0.56007113     0.19100
C1617       C  0.81667609  0.12218203  0.55807317    -0.55800
C1618       C  0.84207988  0.12113380  0.53526917     0.08200
C1619       C  0.84214307  0.07606794  0.60899616    -0.55300
C1620       C  0.86735015  0.07567408  0.58672816     0.08800
H1621       H  0.83934463  0.19172256  0.63076869     0.13300
H1622       H  0.89235268  0.11822672  0.54381879    -0.01000
H1623       H  0.79423421  0.12384152  0.54619668     0.13600
H1624       H  0.83668033  0.04753560  0.62937510     0.13400
C1625       C  0.82303945  0.12205057  0.42364350     0.85200
C1626       C  0.84367011  0.07902707  0.41655092    -0.55000
C1627       C  0.86875311  0.07972702  0.43907255     0.08100
C1628       C  0.87116074  0.12271016  0.46643695     0.19100
C1629       C  0.81678210  0.12158056  0.46820760    -0.55800
C1630       C  0.84213633  0.12192388  0.49111833     0.08200
C1631       C  0.84299350  0.16597327  0.41694465    -0.55300
C1632       C  0.86809323  0.16589587  0.43940431     0.08800
H1633       H  0.83880580  0.05032358  0.39605966     0.13300
H1634       H  0.89244531  0.12315282  0.48278626    -0.01000
H1635       H  0.79429563  0.12080811  0.47999382     0.13600
H1636       H  0.83783946  0.19455665  0.39647007     0.13400
O1637       O  0.78451817  0.08275584  0.38613175    -0.73100
O1638       O  0.72466929  0.08473154  0.64195555    -0.73300
O1639       O  0.78521668  0.08482480  0.64389266    -0.73200
O1640       O  0.72416447  0.08274299  0.38623440    -0.73200
O1641       O  0.72425002  0.16014418  0.38559708    -0.73100
O1642       O  0.78352914  0.16177825  0.63740267    -0.73100
O1643       O  0.72335825  0.16206705  0.63989193    -0.73100
O1644       O  0.78459703  0.16015435  0.38525065    -0.73300
V1645       V  0.75429115  0.08373833  0.34692733     1.35200
V1646       V  0.75429254  0.15811819  0.34624488     1.35200
C1647       C  0.79566986  0.12163712  0.39791059     0.76200
C1648       C  0.71289307  0.12248275  0.62871420     0.76200
C1649       C  0.79544978  0.12238922  0.62838252     0.76100
C1650       C  0.71314217  0.12162667  0.39820411     0.76000
C1651       C  0.68552380  0.12076917  0.60296081     0.85200
C1652       C  0.66612724  0.07621310  0.60954263    -0.55000
C1653       C  0.64100660  0.07566201  0.58707310     0.08100
C1654       C  0.63742358  0.11888014  0.56012326     0.19100
C1655       C  0.69178000  0.12170478  0.55839410    -0.55800
C1656       C  0.66644308  0.12073904  0.53546084     0.08200
C1657       C  0.66433316  0.16312020  0.61012664    -0.55300
C1658       C  0.63928421  0.16181269  0.58758003     0.08800
H1659       H  0.67156309  0.04786046  0.63010630     0.13300
H1660       H  0.61615304  0.11788039  0.54375869    -0.01000
H1661       H  0.71425380  0.12329885  0.54662129     0.13600
H1662       H  0.66890151  0.19203452  0.63053195     0.13400
C1663       C  0.68576419  0.12204846  0.42390878     0.85200
C1664       C  0.66582254  0.16595681  0.41710674    -0.55000
C1665       C  0.64067515  0.16590237  0.43946119     0.08100
C1666       C  0.63754025  0.12271091  0.46649021     0.19100
C1667       C  0.69192152  0.12157928  0.46850321    -0.55800
C1668       C  0.66650641  0.12183408  0.49130528     0.08200
C1669       C  0.66515433  0.07901601  0.41674776    -0.55300
C1670       C  0.64001038  0.07973999  0.43913396     0.08800
H1671       H  0.67101671  0.19451636  0.39662712     0.13300
H1672       H  0.61621525  0.12316264  0.48274336    -0.01000
H1673       H  0.71437955  0.12077122  0.48038568     0.13600
H1674       H  0.67006387  0.05029458  0.39629362     0.13400
C1675       C  0.93551599  0.99578338  0.60296179     0.85200
C1676       C  0.91611263  0.20123588  0.60954479    -0.55000
C1677       C  0.89099068  0.20069764  0.58707724     0.08100
C1678       C  0.88741235  0.99391855  0.56013065     0.19100
C1679       C  0.94176868  0.99671695  0.55839450    -0.55800
C1680       C  0.91643001  0.24576124  0.53546458     0.08200
C1681       C  0.91433319  0.03814367  0.61013248    -0.55300
C1682       C  0.88928262  0.03684850  0.58758915     0.08800
H1683       H  0.92154636  0.17287785  0.63010437     0.13300
H1684       H  0.86614031  0.99293046  0.54376892    -0.01000
H1685       H  0.96424202  0.99829505  0.54661903     0.13600
H1686       H  0.91890707  0.06705342  0.63054001     0.13400
C1687       C  0.93574777  0.24702916  0.42391149     0.85200
C1688       C  0.91580268  0.04093364  0.41710175    -0.55000
C1689       C  0.89065551  0.04088306  0.43945869     0.08100
C1690       C  0.88752417  0.24769842  0.46649520     0.19100
C1691       C  0.94190548  0.24657562  0.46850566    -0.55800
C1692       C  0.91649109  0.99683541  0.49130890     0.08200
C1693       C  0.91514008  0.20399270  0.41676027    -0.55300
C1694       C  0.88999638  0.20472071  0.43914607     0.08800
H1695       H  0.92099638  0.06948965  0.39661845     0.13300
H1696       H  0.86619958  0.24814960  0.48274958    -0.01000
H1697       H  0.96436408  0.24577652  0.48038726     0.13600
H1698       H  0.92004935  0.17526729  0.39630948     0.13400
O1699       O  0.53352555  0.03675931  0.63738107    -0.73100
O1700       O  0.97424429  0.03511851  0.38561217    -0.73300
O1701       O  0.53461356  0.03515395  0.38524285    -0.73200
O1702       O  0.97335866  0.03706872  0.63988169    -0.73200
O1703       O  0.97466365  0.20973312  0.64194831    -0.73100
O1704       O  0.53453118  0.20775562  0.38613606    -0.73100
O1705       O  0.97414330  0.20771723  0.38622654    -0.73100
O1706       O  0.53522632  0.20981167  0.64390755    -0.73300
V1707       V  0.50430032  0.03311311  0.34625084     1.35200
V1708       V  0.50430479  0.20873335  0.34692932     1.35200
C1709       C  0.54545411  0.24736964  0.62837848     0.76200
C1710       C  0.96312739  0.24660183  0.39820689     0.76200
C1711       C  0.54568673  0.99663878  0.39790523     0.76100
C1712       C  0.96288838  0.99748663  0.62870894     0.76000
C1713       C  0.57282065  0.24578743  0.60264912     0.85200
C1714       C  0.59402845  0.03793164  0.61025067    -0.55000
C1715       C  0.61912978  0.03677171  0.58779554     0.08100
C1716       C  0.62104150  0.24407595  0.56006517     0.19100
C1717       C  0.56668579  0.24718243  0.55806488    -0.55800
C1718       C  0.59209086  0.99613050  0.53526204     0.08200
C1719       C  0.59214059  0.20103060  0.60897523    -0.55300
C1720       C  0.61734924  0.20063483  0.58670997     0.08800
H1721       H  0.58936383  0.06668101  0.63077818     0.13300
H1722       H  0.64236180  0.24319128  0.54381352    -0.01000
H1723       H  0.54424493  0.24886095  0.54618659     0.13600
H1724       H  0.58667373  0.17249485  0.62934880     0.13400
C1725       C  0.57305729  0.99705846  0.42363522     0.85200
C1726       C  0.59369035  0.20403781  0.41654574    -0.55000
C1727       C  0.61877205  0.20474343  0.43907005     0.08100
C1728       C  0.62117681  0.99772958  0.46643159     0.19100
C1729       C  0.56679845  0.99659040  0.46819846    -0.55800
C1730       C  0.59215106  0.24693784  0.49111108     0.08400
C1731       C  0.59300922  0.04098368  0.41693402    -0.55300
C1732       C  0.61810856  0.04091207  0.43939455     0.08800
H1733       H  0.58882815  0.17533198  0.39605605     0.13300
H1734       H  0.64246052  0.99817812  0.48278286    -0.01000
H1735       H  0.54431159  0.99580942  0.47998316     0.13600
H1736       H  0.58785433  0.06956378  0.39645694     0.13400
C1737       C  0.82285007  0.13565498  0.93612145     0.85200
C1738       C  0.84168662  0.18100822  0.94193771    -0.55000
C1739       C  0.86688796  0.18172368  0.91963077     0.08100
C1740       C  0.87097061  0.13796801  0.89333615     0.19100
C1741       C  0.81665401  0.13329704  0.89155890    -0.55800
C1742       C  0.84200896  0.13446666  0.86865939     0.08200
C1743       C  0.84456154  0.09418311  0.94403046    -0.55300
C1744       C  0.86957792  0.09560977  0.92139834     0.08800
H1745       H  0.83603564  0.20950423  0.96225633     0.13300
H1746       H  0.89225999  0.13919000  0.87704466    -0.01000
H1747       H  0.79422238  0.13061794  0.87976628     0.13600
H1748       H  0.84016955  0.06543942  0.96467227     0.13400
C1749       C  0.82302752  0.13181727  0.75701725     0.85200
C1750       C  0.84374039  0.08902693  0.74980056    -0.55000
C1751       C  0.86877691  0.08967739  0.77227219     0.08100
C1752       C  0.87112285  0.13250332  0.79987562     0.19100
C1753       C  0.81673392  0.13126349  0.80159187    -0.55800
C1754       C  0.84207330  0.13211619  0.82453258     0.08200
C1755       C  0.84292101  0.17598401  0.75053319    -0.55300
C1756       C  0.86806110  0.17585882  0.77308052     0.08800
H1757       H  0.83892994  0.06040422  0.72920711     0.13300
H1758       H  0.89240450  0.13250591  0.81622129    -0.01000
H1759       H  0.79423562  0.13121832  0.81336674     0.13600
H1760       H  0.83774141  0.20463359  0.73014234     0.13400
O1761       O  0.78373784  0.09102031  0.72217362    -0.73100
O1762       O  0.72402395  0.09344460  0.97120119    -0.73300
O1763       O  0.78412549  0.09356090  0.97083684    -0.73200
O1764       O  0.72359273  0.09065180  0.72019965    -0.73200
O1765       O  0.72489354  0.16798828  0.71822398    -0.73100
O1766       O  0.78468254  0.17053434  0.97748697    -0.73100
O1767       O  0.72394686  0.17051308  0.97714697    -0.73100
O1768       O  0.78545783  0.16797228  0.71569468    -0.73300
V1769       V  0.75431220  0.08928171  0.68192058     1.35200
V1770       V  0.75430743  0.16347171  0.67793279     1.35200
C1771       C  0.79569626  0.13040038  0.73118192     0.76200
C1772       C  0.71286829  0.13328488  0.96199351     0.76200
C1773       C  0.79550723  0.13336256  0.96193894     0.76100
C1774       C  0.71317418  0.13021309  0.73149947     0.76000
C1775       C  0.68552925  0.13563970  0.93622958     0.85200
C1776       C  0.66391751  0.09384410  0.94355959    -0.55000
C1777       C  0.63889945  0.09552201  0.92090872     0.08100
C1778       C  0.63747973  0.13837372  0.89333890     0.19100
C1779       C  0.69181784  0.13415421  0.89169947    -0.55800
C1780       C  0.66651384  0.13551083  0.86874087     0.08200
C1781       C  0.66656851  0.18071844  0.94257057    -0.55300
C1782       C  0.64143315  0.18167205  0.92017312     0.08800
H1783       H  0.66830760  0.06485396  0.96396330     0.13300
H1784       H  0.61622633  0.13980294  0.87697298    -0.01000
H1785       H  0.71428005  0.13176359  0.87996978     0.13600
H1786       H  0.67216633  0.20896721  0.96315118     0.13400
C1787       C  0.68580032  0.13178742  0.75724058     0.85200
C1788       C  0.66575107  0.17547151  0.74981385    -0.55000
C1789       C  0.64062034  0.17574599  0.77235332     0.08100
C1790       C  0.63759897  0.13305398  0.79987697     0.19100
C1791       C  0.69199557  0.13251038  0.80182363    -0.55800
C1792       C  0.66658695  0.13340392  0.82463550     0.08200
C1793       C  0.66525696  0.08850301  0.75080377    -0.55300
C1794       C  0.64011496  0.08955523  0.77306623     0.08800
H1795       H  0.67096597  0.20371467  0.72905210     0.13300
H1796       H  0.61628115  0.13337411  0.81613163    -0.01000
H1797       H  0.71446809  0.13279808  0.81368457     0.13600
H1798       H  0.67010483  0.05945894  0.73063717     0.13400
C1799       C  0.93553109  0.01064504  0.93623533     0.85200
C1800       C  0.91391932  0.21885221  0.94357481    -0.55000
C1801       C  0.88890265  0.22052029  0.92092072     0.08100
C1802       C  0.88748377  0.01336221  0.89333984     0.19100
C1803       C  0.94182162  0.00914326  0.89170482    -0.55800
C1804       C  0.91651849  0.26049453  0.86874354     0.08200
C1805       C  0.91657055  0.05572570  0.94256265    -0.55300
C1806       C  0.89143676  0.05666996  0.92016306     0.08800
H1807       H  0.91830998  0.18986903  0.96398491     0.13300
H1808       H  0.86623059  0.01478496  0.87697334    -0.01000
H1809       H  0.96428429  0.00675386  0.87997667     0.13600
H1810       H  0.92216564  0.08398135  0.96313825     0.13400
C1811       C  0.93580593  0.25679887  0.75723964     0.85200
C1812       C  0.91575709  0.05048564  0.74982253    -0.55000
C1813       C  0.89062608  0.05075344  0.77236237     0.08100
C1814       C  0.88760434  0.25805329  0.79987750     0.19100
C1815       C  0.94200118  0.25750822  0.80182398    -0.55800
C1816       C  0.91659244  0.00839497  0.82463669     0.08200
C1817       C  0.91526071  0.21351686  0.75079502    -0.55300
C1818       C  0.89011859  0.21456261  0.77305759     0.08800
H1819       H  0.92097120  0.07873307  0.72906464     0.13300
H1820       H  0.86628636  0.25836943  0.81613209    -0.01000
H1821       H  0.96447352  0.25779317  0.81368553     0.13600
H1822       H  0.92010826  0.18447734  0.73062399     0.13400
O1823       O  0.53469694  0.04555141  0.97752512    -0.73100
O1824       O  0.97489999  0.04299783  0.71821304    -0.73300
O1825       O  0.53546727  0.04297389  0.71567367    -0.73200
O1826       O  0.97392174  0.04552185  0.97719621    -0.73200
O1827       O  0.97404685  0.21846242  0.97117501    -0.73100
O1828       O  0.53372807  0.21602740  0.72218830    -0.73100
O1829       O  0.97359445  0.21566211  0.72019277    -0.73100
O1830       O  0.53410124  0.21858672  0.97081473    -0.73300
V1831       V  0.50430935  0.03846787  0.67792224     1.35200
V1832       V  0.50431182  0.21428002  0.68192529     1.35200
C1833       C  0.54550226  0.25838321  0.96194527     0.76200
C1834       C  0.96317939  0.25522509  0.73149375     0.76200
C1835       C  0.54569541  0.00540558  0.73117940     0.76100
C1836       C  0.96286768  0.00829789  0.96200415     0.76000
C1837       C  0.57284529  0.26066639  0.93612354     0.85200
C1838       C  0.59167966  0.05602430  0.94192335    -0.55000
C1839       C  0.61688156  0.05673066  0.91961784     0.08100
C1840       C  0.62096612  0.26296385  0.89333635     0.19100
C1841       C  0.56664963  0.25828491  0.89156079    -0.55800
C1842       C  0.59200469  0.00944857  0.86866041     0.08200
C1843       C  0.59455984  0.21920010  0.94404534    -0.55300
C1844       C  0.61957631  0.22061767  0.92141106     0.08800
H1845       H  0.58602907  0.08452825  0.96223469     0.13300
H1846       H  0.64225543  0.26418125  0.87704456    -0.01000
H1847       H  0.54421823  0.25560017  0.87976853     0.13600
H1848       H  0.59016733  0.19046341  0.96469379     0.13400
C1849       C  0.57302507  0.00681806  0.75701629     0.85200
C1850       C  0.59373979  0.21403266  0.74978824    -0.55000
C1851       C  0.61877489  0.21467504  0.77226252     0.08100
C1852       C  0.62111933  0.00749158  0.79987609     0.19100
C1853       C  0.56673071  0.00624597  0.80159109    -0.55800
C1854       C  0.59206961  0.25709482  0.82453291     0.08400
C1855       C  0.59291608  0.05098853  0.75054409    -0.55300
C1856       C  0.61805605  0.05085582  0.77309048     0.08800
H1857       H  0.58892976  0.18541648  0.72918849     0.13300
H1858       H  0.64240097  0.00748972  0.81622176    -0.01000
H1859       H  0.54423222  0.00619761  0.81336560     0.13600
H1860       H  0.58773685  0.07964398  0.73015848     0.13400
C1861       C  0.82283073  0.37011464  0.26930524     0.85200
C1862       C  0.84310510  0.41363959  0.27612137    -0.55000
C1863       C  0.86822585  0.41319410  0.25371009     0.08100
C1864       C  0.87099716  0.37001985  0.22662186     0.19100
C1865       C  0.81660469  0.36991847  0.22473863    -0.55800
C1866       C  0.84198526  0.36985851  0.20188468     0.08200
C1867       C  0.84313382  0.32667855  0.27636103    -0.55300
C1868       C  0.86825373  0.32701573  0.25391836     0.08800
H1869       H  0.83808058  0.44233732  0.29654812     0.13300
H1870       H  0.89230553  0.37010628  0.21033975    -0.01000
H1871       H  0.79412357  0.36966934  0.21290807     0.13600
H1872       H  0.83810870  0.29810098  0.29689636     0.13400
C1873       C  0.82282978  0.36965822  0.09028852     0.85200
C1874       C  0.84198254  0.32475323  0.08381603    -0.55000
C1875       C  0.86714532  0.32397569  0.10622858     0.08100
C1876       C  0.87096705  0.36724899  0.13303125     0.19100
C1877       C  0.81662206  0.37081930  0.13486211    -0.55800
C1878       C  0.84198097  0.36938982  0.15773988     0.08200
C1879       C  0.84423234  0.41164993  0.08296887    -0.55300
C1880       C  0.86929314  0.41012877  0.10546663     0.08800
H1881       H  0.83643528  0.29644265  0.06327393     0.13300
H1882       H  0.89225764  0.36608811  0.14932849    -0.01000
H1883       H  0.79416532  0.37261297  0.14667992     0.13600
H1884       H  0.83972154  0.44060424  0.06257078     0.13400
O1885       O  0.78464663  0.33483532  0.04900962    -0.73100
O1886       O  0.72404202  0.33172261  0.30775335    -0.73300
O1887       O  0.78444450  0.33173862  0.30767794    -0.73200
O1888       O  0.72394099  0.33477875  0.04932000    -0.73200
O1889       O  0.72402591  0.41184382  0.05528354    -0.73100
O1890       O  0.78432444  0.40913942  0.30687435    -0.73100
O1891       O  0.72402027  0.40912190  0.30716109    -0.73100
O1892       O  0.78411307  0.41181568  0.05563182    -0.73300
V1893       V  0.75419059  0.34065525  0.01030598     1.35200
V1894       V  0.75419031  0.41469267  0.01616940     1.35200
C1895       C  0.79547554  0.37200234  0.06453899     0.76200
C1896       C  0.71294146  0.37028382  0.29518793     0.76200
C1897       C  0.79546341  0.37030432  0.29501557     0.76100
C1898       C  0.71288424  0.37198412  0.06451606     0.76000
C1899       C  0.68558365  0.37010390  0.26939286     0.85200
C1900       C  0.66532269  0.32655263  0.27620703    -0.55000
C1901       C  0.64019920  0.32698550  0.25374830     0.08100
C1902       C  0.63743108  0.37016388  0.22664661     0.19100
C1903       C  0.69181970  0.37023244  0.22480140    -0.55800
C1904       C  0.66643790  0.37020631  0.20191951     0.08200
C1905       C  0.66525320  0.41351523  0.27638035    -0.55300
C1906       C  0.64016320  0.41316998  0.25391527     0.08800
H1907       H  0.67035633  0.29787396  0.29664183     0.13300
H1908       H  0.61612581  0.37032772  0.21035605    -0.01000
H1909       H  0.71430153  0.37008341  0.21297402     0.13600
H1910       H  0.67024804  0.44212250  0.29690647     0.13400
C1911       C  0.68553563  0.36963823  0.09027921     0.85200
C1912       C  0.66408715  0.41152834  0.08280022    -0.55000
C1913       C  0.63904718  0.41008829  0.10531940     0.08100
C1914       C  0.63741451  0.36736394  0.13305217     0.19100
C1915       C  0.69175632  0.37107153  0.13485288    -0.55800
C1916       C  0.66641277  0.36969832  0.15775477     0.08200
C1917       C  0.66642310  0.32465557  0.08397827    -0.55300
C1918       C  0.64125264  0.32395440  0.10638826     0.08800
H1919       H  0.66856460  0.44039666  0.06230683     0.13300
H1920       H  0.61612577  0.36626379  0.14935340    -0.01000
H1921       H  0.71421457  0.37295645  0.14666055     0.13600
H1922       H  0.67197981  0.29628132  0.06350181     0.13400
C1923       C  0.93556809  0.24509286  0.26940235     0.85200
C1924       C  0.91530528  0.45154390  0.27621478    -0.55000
C1925       C  0.89018374  0.45197945  0.25375251     0.08100
C1926       C  0.88741829  0.24515962  0.22665226     0.19100
C1927       C  0.94180667  0.24522182  0.22481229    -0.55800
C1928       C  0.91642658  0.49520132  0.20192816     0.08200
C1929       C  0.91523968  0.28850647  0.27638956    -0.55300
C1930       C  0.89015075  0.28816389  0.25392276     0.08800
H1931       H  0.92033683  0.42286451  0.29664934     0.13300
H1932       H  0.86611366  0.24532606  0.21035971    -0.01000
H1933       H  0.96428923  0.24507073  0.21298735     0.13600
H1934       H  0.92023464  0.31711244  0.29691657     0.13400
C1935       C  0.93553390  0.49463219  0.09029062     0.85200
C1936       C  0.91408720  0.28652395  0.08280608    -0.55000
C1937       C  0.88904526  0.28508991  0.10532244     0.08100
C1938       C  0.88740890  0.49236870  0.13305812     0.19100
C1939       C  0.94175085  0.49607021  0.13486533    -0.55800
C1940       C  0.91640521  0.24470004  0.15776391     0.08200
C1941       C  0.91641961  0.44965040  0.08399253    -0.55300
C1942       C  0.89124711  0.44895567  0.10639911     0.08800
H1943       H  0.91856813  0.31538978  0.06231136     0.13300
H1944       H  0.86611882  0.49127309  0.14935696    -0.01000
H1945       H  0.96420839  0.49795172  0.14667606     0.13600
H1946       H  0.92197627  0.42127208  0.06351977     0.13400
O1947       O  0.53432598  0.28414238  0.30686765    -0.73100
O1948       O  0.97404742  0.28683297  0.05533261    -0.73300
O1949       O  0.53409954  0.28681340  0.05566879    -0.73200
O1950       O  0.97400093  0.28410408  0.30717794    -0.73200
O1951       O  0.97403103  0.45670433  0.30774681    -0.73100
O1952       O  0.53466085  0.45984122  0.04898634    -0.73100
O1953       O  0.97392154  0.45977708  0.04929410    -0.73100
O1954       O  0.53446195  0.45674211  0.30768401    -0.73300
V1955       V  0.50418974  0.28970794  0.01619088     1.35200
V1956       V  0.50418530  0.46567312  0.01030996     1.35200
C1957       C  0.54547407  0.49530999  0.29501562     0.76200
C1958       C  0.96288481  0.49697558  0.06452810     0.76200
C1959       C  0.54547751  0.24700118  0.06454295     0.76100
C1960       C  0.96292535  0.24526821  0.29519557     0.76000
C1961       C  0.57284309  0.49512404  0.26930453     0.85200
C1962       C  0.59312042  0.28864523  0.27612392    -0.55000
C1963       C  0.61824089  0.28819962  0.25371039     0.08100
C1964       C  0.62100900  0.49502849  0.22661794     0.19100
C1965       C  0.56661646  0.49493554  0.22473809    -0.55800
C1966       C  0.59199616  0.24487384  0.20188255     0.08200
C1967       C  0.59314500  0.45168389  0.27635423    -0.55300
C1968       C  0.61826481  0.45202117  0.25391089     0.08800
H1969       H  0.58809689  0.31734147  0.29655237     0.13300
H1970       H  0.64231640  0.49511467  0.21033367    -0.01000
H1971       H  0.54413489  0.49468968  0.21290865     0.13600
H1972       H  0.58811989  0.42310460  0.29688791     0.13400
C1973       C  0.57283377  0.24465658  0.09028817     0.85200
C1974       C  0.59198243  0.44974682  0.08382135    -0.55000
C1975       C  0.61714686  0.44897179  0.10623010     0.08100
C1976       C  0.62097371  0.24225067  0.13302574     0.19100
C1977       C  0.56662951  0.24583137  0.13486229    -0.55800
C1978       C  0.59198965  0.49440202  0.15773752     0.08400
C1979       C  0.59423879  0.28664284  0.08295811    -0.55300
C1980       C  0.61930055  0.28512451  0.10545479     0.08800
H1981       H  0.58643291  0.42143305  0.06328332     0.13300
H1982       H  0.64226522  0.24109016  0.14932091    -0.01000
H1983       H  0.54417343  0.24763115  0.14668241     0.13600
H1984       H  0.58972696  0.31559409  0.06255750     0.13400
C1985       C  0.82281409  0.37081178  0.60265607     0.85200
C1986       C  0.84401209  0.41297009  0.61024491    -0.55000
C1987       C  0.86911307  0.41181110  0.58779127     0.08100
C1988       C  0.87103263  0.36910588  0.56007117     0.19100
C1989       C  0.81667615  0.37218200  0.55807316    -0.55800
C1990       C  0.84207996  0.37113373  0.53526919     0.08200
C1991       C  0.84214304  0.32606793  0.60899617    -0.55300
C1992       C  0.86735013  0.32567402  0.58672819     0.08800
H1993       H  0.83934466  0.44172255  0.63076841     0.13300
H1994       H  0.89235267  0.36822659  0.54381893    -0.01000
H1995       H  0.79423429  0.37384146  0.54619664     0.13600
H1996       H  0.83668025  0.29753557  0.62937507     0.13400
C1997       C  0.82303945  0.37205053  0.42364353     0.85200
C1998       C  0.84367006  0.32902701  0.41655094    -0.55000
C1999       C  0.86875307  0.32972695  0.43907252     0.08100
C2000       C  0.87116078  0.37271006  0.46643691     0.19100
C2001       C  0.81678218  0.37158050  0.46820762    -0.55800
C2002       C  0.84213639  0.37192382  0.49111834     0.08200
C2003       C  0.84299351  0.41597323  0.41694465    -0.55300
C2004       C  0.86809327  0.41589577  0.43940427     0.08800
H2005       H  0.83880569  0.30032351  0.39605969     0.13300
H2006       H  0.89244534  0.37315263  0.48278618    -0.01000
H2007       H  0.79429556  0.37080803  0.47999398     0.13600
H2008       H  0.83783945  0.44455655  0.39647016     0.13400
O2009       O  0.78451818  0.33275580  0.38613176    -0.73100
O2010       O  0.72466924  0.33473151  0.64195555    -0.73300
O2011       O  0.78521663  0.33482495  0.64389265    -0.73200
O2012       O  0.72416441  0.33274291  0.38623438    -0.73200
O2013       O  0.72425001  0.41014410  0.38559707    -0.73100
O2014       O  0.78352913  0.41177841  0.63740264    -0.73100
O2015       O  0.72335823  0.41206702  0.63989195    -0.73100
O2016       O  0.78459708  0.41015431  0.38525064    -0.73300
V2017       V  0.75429115  0.33373828  0.34692734     1.35200
V2018       V  0.75429256  0.40811814  0.34624488     1.35200
C2019       C  0.79566988  0.37163710  0.39791059     0.76200
C2020       C  0.71289305  0.37248275  0.62871419     0.76200
C2021       C  0.79544977  0.37238937  0.62838251     0.76100
C2022       C  0.71314213  0.37162661  0.39820409     0.76000
C2023       C  0.68552379  0.37076919  0.60296080     0.85200
C2024       C  0.66612719  0.32621321  0.60954268    -0.55000
C2025       C  0.64100658  0.32566206  0.58707310     0.08100
C2026       C  0.63742357  0.36888017  0.56012324     0.19100
C2027       C  0.69177998  0.37170473  0.55839409    -0.55800
C2028       C  0.66644307  0.37073897  0.53546082     0.08200
C2029       C  0.66433318  0.41312021  0.61012659    -0.55300
C2030       C  0.63928422  0.41181275  0.58758001     0.08800
H2031       H  0.67156301  0.29786058  0.63010644     0.13300
H2032       H  0.61615306  0.36788041  0.54375869    -0.01000
H2033       H  0.71425382  0.37329884  0.54662127     0.13600
H2034       H  0.66890160  0.44203460  0.63053200     0.13400
C2035       C  0.68576417  0.37204845  0.42390880     0.85200
C2036       C  0.66582255  0.41595679  0.41710680    -0.55000
C2037       C  0.64067515  0.41590239  0.43946121     0.08100
C2038       C  0.63754022  0.37271089  0.46649021     0.19100
C2039       C  0.69192146  0.37157923  0.46850320    -0.55800
C2040       C  0.66650639  0.37183400  0.49130528     0.08200
C2041       C  0.66515429  0.32901606  0.41674777    -0.55300
C2042       C  0.64001034  0.32973999  0.43913392     0.08800
H2043       H  0.67101679  0.44451642  0.39662709     0.13300
H2044       H  0.61621523  0.37316263  0.48274335    -0.01000
H2045       H  0.71437967  0.37077120  0.48038578     0.13600
H2046       H  0.67006389  0.30029455  0.39629352     0.13400
C2047       C  0.93551597  0.24578337  0.60296184     0.85200
C2048       C  0.91611268  0.45123593  0.60954476    -0.55000
C2049       C  0.89099073  0.45069759  0.58707726     0.08100
C2050       C  0.88741235  0.24391856  0.56013063     0.19100
C2051       C  0.94176864  0.24671701  0.55839456    -0.55800
C2052       C  0.91642999  0.49576116  0.53546457     0.08200
C2053       C  0.91433315  0.28814361  0.61013253    -0.55300
C2054       C  0.88928261  0.28684846  0.58758916     0.08800
H2055       H  0.92154648  0.42287778  0.63010451     0.13300
H2056       H  0.86614032  0.24293056  0.54376886    -0.01000
H2057       H  0.96424217  0.24829528  0.54661901     0.13600
H2058       H  0.91890701  0.31705340  0.63054014     0.13400
C2059       C  0.93574779  0.49702908  0.42391150     0.85200
C2060       C  0.91580262  0.29093358  0.41710170    -0.55000
C2061       C  0.89065545  0.29088303  0.43945863     0.08100
C2062       C  0.88752414  0.49769834  0.46649520     0.19100
C2063       C  0.94190552  0.49657553  0.46850570    -0.55800
C2064       C  0.91649109  0.24683558  0.49130890     0.08200
C2065       C  0.91514011  0.45399261  0.41676028    -0.55300
C2066       C  0.88999640  0.45472062  0.43914605     0.08800
H2067       H  0.92099632  0.31948957  0.39661836     0.13300
H2068       H  0.86619964  0.49814951  0.48274945    -0.01000
H2069       H  0.96436391  0.49577644  0.48038718     0.13600
H2070       H  0.92004941  0.42526720  0.39630952     0.13400
O2071       O  0.53352564  0.28675923  0.63738110    -0.73100
O2072       O  0.97424424  0.28511846  0.38561215    -0.73300
O2073       O  0.53461353  0.28515399  0.38524287    -0.73200
O2074       O  0.97335868  0.28706878  0.63988167    -0.73200
O2075       O  0.97466367  0.45973309  0.64194834    -0.73100
O2076       O  0.53453126  0.45775555  0.38613605    -0.73100
O2077       O  0.97414329  0.45771718  0.38622649    -0.73100
O2078       O  0.53522629  0.45981175  0.64390756    -0.73300
V2079       V  0.50430032  0.28311311  0.34625086     1.35200
V2080       V  0.50430485  0.45873331  0.34692933     1.35200
C2081       C  0.54545407  0.49736970  0.62837848     0.76200
C2082       C  0.96312740  0.49660176  0.39820687     0.76200
C2083       C  0.54568667  0.24663880  0.39790525     0.76100
C2084       C  0.96288836  0.24748666  0.62870896     0.76000
C2085       C  0.57282061  0.49578747  0.60264910     0.85200
C2086       C  0.59402850  0.28793160  0.61025069    -0.55000
C2087       C  0.61912979  0.28677173  0.58779550     0.08100
C2088       C  0.62104145  0.49407602  0.56006520     0.19100
C2089       C  0.56668570  0.49718240  0.55806484    -0.55800
C2090       C  0.59209087  0.24613044  0.53526204     0.08200
C2091       C  0.59214055  0.45103062  0.60897523    -0.55300
C2092       C  0.61734923  0.45063488  0.58670998     0.08800
H2093       H  0.58936390  0.31668105  0.63077826     0.13300
H2094       H  0.64236179  0.49319141  0.54381354    -0.01000
H2095       H  0.54424503  0.49886086  0.54618663     0.13600
H2096       H  0.58667368  0.42249493  0.62934870     0.13400
C2097       C  0.57305726  0.24705840  0.42363522     0.85200
C2098       C  0.59369035  0.45403779  0.41654576    -0.55000
C2099       C  0.61877206  0.45474345  0.43907007     0.08100
C2100       C  0.62117680  0.24772952  0.46643157     0.19100
C2101       C  0.56679845  0.24659030  0.46819847    -0.55800
C2102       C  0.59215105  0.49693796  0.49111108     0.08400
C2103       C  0.59300917  0.29098363  0.41693402    -0.55300
C2104       C  0.61810853  0.29091202  0.43939453     0.08800
H2105       H  0.58882814  0.42533198  0.39605615     0.13300
H2106       H  0.64246049  0.24817805  0.48278281    -0.01000
H2107       H  0.54431155  0.24580932  0.47998322     0.13600
H2108       H  0.58785424  0.31956366  0.39645698     0.13400
C2109       C  0.82285002  0.38565491  0.93612144     0.85200
C2110       C  0.84168657  0.43100812  0.94193769    -0.55000
C2111       C  0.86688791  0.43172364  0.91963076     0.08100
C2112       C  0.87097055  0.38796797  0.89333616     0.19100
C2113       C  0.81665392  0.38329694  0.89155888    -0.55800
C2114       C  0.84200893  0.38446658  0.86865939     0.08200
C2115       C  0.84456150  0.34418303  0.94403048    -0.55300
C2116       C  0.86957790  0.34560974  0.92139836     0.08800
H2117       H  0.83603554  0.45950422  0.96225637     0.13300
H2118       H  0.89225998  0.38918997  0.87704463    -0.01000
H2119       H  0.79422251  0.38061787  0.87976638     0.13600
H2120       H  0.84016951  0.31543938  0.96467222     0.13400
C2121       C  0.82302749  0.38181724  0.75701725     0.85200
C2122       C  0.84374038  0.33902689  0.74980057    -0.55000
C2123       C  0.86877691  0.33967734  0.77227217     0.08100
C2124       C  0.87112284  0.38250324  0.79987562     0.19100
C2125       C  0.81673390  0.38126345  0.80159186    -0.55800
C2126       C  0.84207326  0.38211610  0.82453258     0.08200
C2127       C  0.84292099  0.42598397  0.75053321    -0.55300
C2128       C  0.86806110  0.42585873  0.77308051     0.08800
H2129       H  0.83892994  0.31040413  0.72920704     0.13300
H2130       H  0.89240445  0.38250581  0.81622127    -0.01000
H2131       H  0.79423558  0.38121835  0.81336672     0.13600
H2132       H  0.83774139  0.45463349  0.73014242     0.13400
O2133       O  0.78373776  0.34102045  0.72217362    -0.73100
O2134       O  0.72402394  0.34344452  0.97120125    -0.73300
O2135       O  0.78412544  0.34356086  0.97083680    -0.73200
O2136       O  0.72359268  0.34065181  0.72019960    -0.73200
O2137       O  0.72489360  0.41798829  0.71822403    -0.73100
O2138       O  0.78468252  0.42053431  0.97748697    -0.73100
O2139       O  0.72394685  0.42051302  0.97714696    -0.73100
O2140       O  0.78545783  0.41797243  0.71569467    -0.73300
V2141       V  0.75431215  0.33928176  0.68192056     1.35200
V2142       V  0.75430742  0.41347176  0.67793279     1.35200
C2143       C  0.79569623  0.38040050  0.73118191     0.76200
C2144       C  0.71286829  0.38328479  0.96199353     0.76200
C2145       C  0.79550718  0.38336251  0.96193891     0.76100
C2146       C  0.71317421  0.38021310  0.73149948     0.76000
C2147       C  0.68552927  0.38563959  0.93622959     0.85200
C2148       C  0.66391749  0.34384404  0.94355960    -0.55000
C2149       C  0.63889945  0.34552197  0.92090871     0.08100
C2150       C  0.63747980  0.38837368  0.89333891     0.19100
C2151       C  0.69181792  0.38415412  0.89169946    -0.55800
C2152       C  0.66651388  0.38551074  0.86874086     0.08200
C2153       C  0.66656858  0.43071836  0.94257056    -0.55300
C2154       C  0.64143321  0.43167201  0.92017310     0.08800
H2155       H  0.66830753  0.31485383  0.96396336     0.13300
H2156       H  0.61622628  0.38980292  0.87697285    -0.01000
H2157       H  0.71427992  0.38176363  0.87996989     0.13600
H2158       H  0.67216641  0.45896713  0.96315117     0.13400
C2159       C  0.68580037  0.38178744  0.75724059     0.85200
C2160       C  0.66575112  0.42547147  0.74981383    -0.55000
C2161       C  0.64062038  0.42574598  0.77235328     0.08100
C2162       C  0.63759906  0.38305400  0.79987694     0.19100
C2163       C  0.69199568  0.38251048  0.80182364    -0.55800
C2164       C  0.66658701  0.38340396  0.82463549     0.08200
C2165       C  0.66525704  0.33850298  0.75080381    -0.55300
C2166       C  0.64011502  0.33955522  0.77306625     0.08800
H2167       H  0.67096605  0.45371470  0.72905197     0.13300
H2168       H  0.61628115  0.38337416  0.81613174    -0.01000
H2169       H  0.71446803  0.38279824  0.81368447     0.13600
H2170       H  0.67010489  0.30945888  0.73063724     0.13400
C2171       C  0.93553113  0.26064511  0.93623531     0.85200
C2172       C  0.91391923  0.46885227  0.94357480    -0.55000
C2173       C  0.88890261  0.47052026  0.92092069     0.08100
C2174       C  0.88748383  0.26336223  0.89333987     0.19100
C2175       C  0.94182169  0.25914336  0.89170479    -0.55800
C2176       C  0.91651849  0.51049457  0.86874353     0.08200
C2177       C  0.91657054  0.30572568  0.94256267    -0.55300
C2178       C  0.89143676  0.30666998  0.92016306     0.08800
H2179       H  0.91830990  0.43986895  0.96398515     0.13300
H2180       H  0.86623051  0.26478494  0.87697324    -0.01000
H2181       H  0.96428418  0.25675409  0.87997673     0.13600
H2182       H  0.92216559  0.33398139  0.96313837     0.13400
C2183       C  0.93580592  0.50679878  0.75723964     0.85200
C2184       C  0.91575713  0.30048561  0.74982254    -0.55000
C2185       C  0.89062611  0.30075343  0.77236235     0.08100
C2186       C  0.88760434  0.50805323  0.79987748     0.19100
C2187       C  0.94200119  0.50750818  0.80182398    -0.55800
C2188       C  0.91659245  0.25839494  0.82463669     0.08200
C2189       C  0.91526073  0.46351675  0.75079503    -0.55300
C2190       C  0.89011859  0.46456253  0.77305758     0.08800
H2191       H  0.92097127  0.32873302  0.72906464     0.13300
H2192       H  0.86628632  0.50836934  0.81613211    -0.01000
H2193       H  0.96447347  0.50779323  0.81368550     0.13600
H2194       H  0.92010831  0.43447723  0.73062406     0.13400
O2195       O  0.53469689  0.29555134  0.97752511    -0.73100
O2196       O  0.97490001  0.29299787  0.71821308    -0.73300
O2197       O  0.53546735  0.29297382  0.71567365    -0.73200
O2198       O  0.97392178  0.29552200  0.97719619    -0.73200
O2199       O  0.97404678  0.46846237  0.97117504    -0.73100
O2200       O  0.53372798  0.46602746  0.72218830    -0.73100
O2201       O  0.97359453  0.46566207  0.72019283    -0.73100
O2202       O  0.53410126  0.46858680  0.97081475    -0.73300
V2203       V  0.50430943  0.28846779  0.67792225     1.35200
V2204       V  0.50431177  0.46428012  0.68192529     1.35200
C2205       C  0.54550229  0.50838329  0.96194528     0.76200
C2206       C  0.96317940  0.50522502  0.73149376     0.76200
C2207       C  0.54569547  0.25540551  0.73117939     0.76100
C2208       C  0.96286775  0.25829800  0.96200412     0.76000
C2209       C  0.57284532  0.51066638  0.93612353     0.85200
C2210       C  0.59167966  0.30602427  0.94192333    -0.55000
C2211       C  0.61688153  0.30673069  0.91961784     0.08100
C2212       C  0.62096614  0.51296381  0.89333636     0.19100
C2213       C  0.56664960  0.50828484  0.89156078    -0.55800
C2214       C  0.59200468  0.25944868  0.86866040     0.08200
C2215       C  0.59455989  0.46920010  0.94404535    -0.55300
C2216       C  0.61957637  0.47061764  0.92141107     0.08800
H2217       H  0.58602903  0.33452843  0.96223490     0.13300
H2218       H  0.64225542  0.51418119  0.87704454    -0.01000
H2219       H  0.54421835  0.50560009  0.87976865     0.13600
H2220       H  0.59016740  0.44046340  0.96469380     0.13400
C2221       C  0.57302509  0.25681807  0.75701631     0.85200
C2222       C  0.59373973  0.46403256  0.74978825    -0.55000
C2223       C  0.61877487  0.46467496  0.77226249     0.08100
C2224       C  0.62111932  0.25749161  0.79987607     0.19100
C2225       C  0.56673066  0.25624599  0.80159111    -0.55800
C2226       C  0.59206963  0.50709473  0.82453292     0.08400
C2227       C  0.59291609  0.30098856  0.75054410    -0.55300
C2228       C  0.61805608  0.30085585  0.77309048     0.08800
H2229       H  0.58892966  0.43541638  0.72918852     0.13300
H2230       H  0.64240102  0.25748973  0.81622181    -0.01000
H2231       H  0.54423238  0.25619754  0.81336550     0.13600
H2232       H  0.58773686  0.32964405  0.73015848     0.13400
C2233       C  0.82283076  0.62011465  0.26930527     0.85200
C2234       C  0.84310512  0.66363965  0.27612136    -0.55000
C2235       C  0.86822590  0.66319409  0.25371011     0.08100
C2236       C  0.87099719  0.62001981  0.22662186     0.19100
C2237       C  0.81660476  0.61991855  0.22473868    -0.55800
C2238       C  0.84198529  0.61985855  0.20188469     0.08200
C2239       C  0.84313386  0.57667851  0.27636108    -0.55300
C2240       C  0.86825373  0.57701567  0.25391833     0.08800
H2241       H  0.83808056  0.69233736  0.29654793     0.13300
H2242       H  0.89230553  0.62010617  0.21033977    -0.01000
H2243       H  0.79412344  0.61966958  0.21290802     0.13600
H2244       H  0.83810879  0.54810109  0.29689634     0.13400
C2245       C  0.82282980  0.61965820  0.09028852     0.85200
C2246       C  0.84198263  0.57475327  0.08381605    -0.55000
C2247       C  0.86714541  0.57397581  0.10622856     0.08100
C2248       C  0.87096709  0.61724913  0.13303123     0.19100
C2249       C  0.81662212  0.62081927  0.13486209    -0.55800
C2250       C  0.84198099  0.61938993  0.15773987     0.08200
C2251       C  0.84423231  0.66165005  0.08296885    -0.55300
C2252       C  0.86929313  0.66012884  0.10546661     0.08800
H2253       H  0.83643537  0.54644256  0.06327401     0.13300
H2254       H  0.89225765  0.61608837  0.14932847    -0.01000
H2255       H  0.79416517  0.62261278  0.14668001     0.13600
H2256       H  0.83972150  0.69060413  0.06257098     0.13400
O2257       O  0.78464661  0.58483523  0.04900968    -0.73100
O2258       O  0.72404198  0.58172256  0.30775338    -0.73300
O2259       O  0.78444449  0.58173858  0.30767790    -0.73200
O2260       O  0.72394096  0.58477878  0.04931996    -0.73200
O2261       O  0.72402594  0.66184383  0.05528357    -0.73100
O2262       O  0.78432446  0.65913940  0.30687438    -0.73100
O2263       O  0.72402020  0.65912186  0.30716110    -0.73100
O2264       O  0.78411311  0.66181560  0.05563177    -0.73300
V2265       V  0.75419061  0.59065520  0.01030599     1.35200
V2266       V  0.75419034  0.66469262  0.01616939     1.35200
C2267       C  0.79547556  0.62200227  0.06453899     0.76200
C2268       C  0.71294140  0.62028377  0.29518797     0.76200
C2269       C  0.79546344  0.62030430  0.29501560     0.76100
C2270       C  0.71288424  0.62198414  0.06451606     0.76000
C2271       C  0.68558362  0.62010387  0.26939287     0.85200
C2272       C  0.66532269  0.57655254  0.27620707    -0.55000
C2273       C  0.64019920  0.57698547  0.25374832     0.08100
C2274       C  0.63743111  0.62016383  0.22664664     0.19100
C2275       C  0.69181970  0.62023237  0.22480142    -0.55800
C2276       C  0.66643789  0.62020622  0.20191951     0.08200
C2277       C  0.66525318  0.66351527  0.27638036    -0.55300
C2278       C  0.64016319  0.66316996  0.25391523     0.08800
H2279       H  0.67035629  0.54787400  0.29664170     0.13300
H2280       H  0.61612573  0.62032765  0.21035596    -0.01000
H2281       H  0.71430148  0.62008332  0.21297405     0.13600
H2282       H  0.67024796  0.69212245  0.29690635     0.13400
C2283       C  0.68553561  0.61963826  0.09027920     0.85200
C2284       C  0.66408711  0.66152834  0.08280021    -0.55000
C2285       C  0.63904717  0.66008831  0.10531941     0.08100
C2286       C  0.63741448  0.61736393  0.13305217     0.19100
C2287       C  0.69175628  0.62107151  0.13485288    -0.55800
C2288       C  0.66641275  0.61969827  0.15775478     0.08200
C2289       C  0.66642307  0.57465560  0.08397825    -0.55300
C2290       C  0.64125262  0.57395440  0.10638824     0.08800
H2291       H  0.66856455  0.69039675  0.06230674     0.13300
H2292       H  0.61612573  0.61626374  0.14935343    -0.01000
H2293       H  0.71421453  0.62295638  0.14666057     0.13600
H2294       H  0.67197980  0.54628131  0.06350180     0.13400
C2295       C  0.93556810  0.49509280  0.26940238     0.85200
C2296       C  0.91530529  0.70154401  0.27621477    -0.55000
C2297       C  0.89018377  0.70197948  0.25375251     0.08100
C2298       C  0.88741829  0.49515955  0.22665223     0.19100
C2299       C  0.94180668  0.49522175  0.22481231    -0.55800
C2300       C  0.91642655  0.74520133  0.20192815     0.08200
C2301       C  0.91523966  0.53850635  0.27638950    -0.55300
C2302       C  0.89015075  0.53816382  0.25392273     0.08800
H2303       H  0.92033691  0.67286445  0.29664946     0.13300
H2304       H  0.86611371  0.49532600  0.21035970    -0.01000
H2305       H  0.96428927  0.49507076  0.21298739     0.13600
H2306       H  0.92023465  0.56711254  0.29691667     0.13400
C2307       C  0.93553385  0.74463217  0.09029061     0.85200
C2308       C  0.91408726  0.53652392  0.08280604    -0.55000
C2309       C  0.88904533  0.53508998  0.10532243     0.08100
C2310       C  0.88740888  0.74236865  0.13305813     0.19100
C2311       C  0.94175087  0.74607016  0.13486534    -0.55800
C2312       C  0.91640522  0.49470006  0.15776391     0.08200
C2313       C  0.91641959  0.69965039  0.08399252    -0.55300
C2314       C  0.89124709  0.69895568  0.10639910     0.08800
H2315       H  0.91856825  0.56538965  0.06231132     0.13300
H2316       H  0.86611879  0.74127298  0.14935701    -0.01000
H2317       H  0.96420823  0.74795163  0.14667594     0.13600
H2318       H  0.92197623  0.67127201  0.06351973     0.13400
O2319       O  0.53432595  0.53414239  0.30686762    -0.73100
O2320       O  0.97404748  0.53683300  0.05533265    -0.73300
O2321       O  0.53409960  0.53681336  0.05566878    -0.73200
O2322       O  0.97400096  0.53410407  0.30717793    -0.73200
O2323       O  0.97403098  0.70670443  0.30774681    -0.73100
O2324       O  0.53466085  0.70984129  0.04898634    -0.73100
O2325       O  0.97392149  0.70977704  0.04929408    -0.73100
O2326       O  0.53446186  0.70674205  0.30768398    -0.73300
V2327       V  0.50418977  0.53970800  0.01619090     1.35200
V2328       V  0.50418530  0.71567315  0.01030996     1.35200
C2329       C  0.54547404  0.74530990  0.29501563     0.76200
C2330       C  0.96288474  0.74697556  0.06452806     0.76200
C2331       C  0.54547754  0.49700112  0.06454293     0.76100
C2332       C  0.96292536  0.49526820  0.29519560     0.76000
C2333       C  0.57284307  0.74512394  0.26930454     0.85200
C2334       C  0.59312045  0.53864520  0.27612391    -0.55000
C2335       C  0.61824091  0.53819960  0.25371038     0.08100
C2336       C  0.62100893  0.74502847  0.22661795     0.19100
C2337       C  0.56661642  0.74493544  0.22473810    -0.55800
C2338       C  0.59199620  0.49487376  0.20188254     0.08200
C2339       C  0.59314501  0.70168384  0.27635424    -0.55300
C2340       C  0.61826479  0.70202113  0.25391087     0.08800
H2341       H  0.58809691  0.56734140  0.29655243     0.13300
H2342       H  0.64231642  0.74511463  0.21033355    -0.01000
H2343       H  0.54413487  0.74468957  0.21290868     0.13600
H2344       H  0.58811994  0.67310448  0.29688797     0.13400
C2345       C  0.57283378  0.49465652  0.09028818     0.85200
C2346       C  0.59198249  0.69974697  0.08382131    -0.55000
C2347       C  0.61714689  0.69897184  0.10623009     0.08100
C2348       C  0.62097371  0.49225065  0.13302573     0.19100
C2349       C  0.56662947  0.49583143  0.13486232    -0.55800
C2350       C  0.59198967  0.74440196  0.15773752     0.08400
C2351       C  0.59423877  0.53664280  0.08295811    -0.55300
C2352       C  0.61930055  0.53512448  0.10545478     0.08800
H2353       H  0.58643293  0.67143304  0.06328312     0.13300
H2354       H  0.64226524  0.49109012  0.14932092    -0.01000
H2355       H  0.54417353  0.49763132  0.14668235     0.13600
H2356       H  0.58972693  0.56559398  0.06255753     0.13400
C2357       C  0.82281407  0.62081181  0.60265607     0.85200
C2358       C  0.84401208  0.66297005  0.61024489    -0.55000
C2359       C  0.86911301  0.66181113  0.58779122     0.08100
C2360       C  0.87103255  0.61910586  0.56007115     0.19100
C2361       C  0.81667609  0.62218213  0.55807318    -0.55800
C2362       C  0.84207987  0.62113370  0.53526918     0.08200
C2363       C  0.84214303  0.57606794  0.60899617    -0.55300
C2364       C  0.86735013  0.57567402  0.58672818     0.08800
H2365       H  0.83934465  0.69172268  0.63076863     0.13300
H2366       H  0.89235267  0.61822659  0.54381881    -0.01000
H2367       H  0.79423422  0.62384177  0.54619669     0.13600
H2368       H  0.83668027  0.54753561  0.62937507     0.13400
C2369       C  0.82303944  0.62205059  0.42364348     0.85200
C2370       C  0.84367008  0.57902702  0.41655086    -0.55000
C2371       C  0.86875309  0.57972698  0.43907251     0.08100
C2372       C  0.87116073  0.62271007  0.46643694     0.19100
C2373       C  0.81678209  0.62158046  0.46820758    -0.55800
C2374       C  0.84213632  0.62192374  0.49111832     0.08200
C2375       C  0.84299348  0.66597334  0.41694465    -0.55300
C2376       C  0.86809322  0.66589584  0.43940433     0.08800
H2377       H  0.83880579  0.55032370  0.39605974     0.13300
H2378       H  0.89244529  0.62315267  0.48278625    -0.01000
H2379       H  0.79429563  0.62080794  0.47999381     0.13600
H2380       H  0.83783951  0.69455661  0.39647021     0.13400
O2381       O  0.78451817  0.58275587  0.38613175    -0.73100
O2382       O  0.72466929  0.58473154  0.64195554    -0.73300
O2383       O  0.78521668  0.58482490  0.64389265    -0.73200
O2384       O  0.72416446  0.58274291  0.38623441    -0.73200
O2385       O  0.72425002  0.66014412  0.38559708    -0.73100
O2386       O  0.78352913  0.66177836  0.63740267    -0.73100
O2387       O  0.72335825  0.66206704  0.63989194    -0.73100
O2388       O  0.78459702  0.66015440  0.38525065    -0.73300
V2389       V  0.75429115  0.58373829  0.34692733     1.35200
V2390       V  0.75429253  0.65811817  0.34624487     1.35200
C2391       C  0.79566985  0.62163717  0.39791058     0.76200
C2392       C  0.71289308  0.62248275  0.62871419     0.76200
C2393       C  0.79544978  0.62238933  0.62838252     0.76100
C2394       C  0.71314216  0.62162663  0.39820411     0.76000
C2395       C  0.68552382  0.62076917  0.60296079     0.85200
C2396       C  0.66612723  0.57621316  0.60954267    -0.55000
C2397       C  0.64100659  0.57566205  0.58707313     0.08100
C2398       C  0.63742359  0.61888011  0.56012326     0.19100
C2399       C  0.69178001  0.62170470  0.55839408    -0.55800
C2400       C  0.66644309  0.62073895  0.53546083     0.08200
C2401       C  0.66433320  0.66312019  0.61012657    -0.55300
C2402       C  0.63928422  0.66181267  0.58758002     0.08800
H2403       H  0.67156307  0.54786057  0.63010638     0.13300
H2404       H  0.61615304  0.61788031  0.54375869    -0.01000
H2405       H  0.71425381  0.62329881  0.54662126     0.13600
H2406       H  0.66890161  0.69203463  0.63053195     0.13400
C2407       C  0.68576418  0.62204845  0.42390878     0.85200
C2408       C  0.66582252  0.66595675  0.41710675    -0.55000
C2409       C  0.64067513  0.66590239  0.43946119     0.08100
C2410       C  0.63754024  0.62271091  0.46649022     0.19100
C2411       C  0.69192151  0.62157938  0.46850321    -0.55800
C2412       C  0.66650640  0.62183412  0.49130528     0.08200
C2413       C  0.66515432  0.57901605  0.41674780    -0.55300
C2414       C  0.64001039  0.57973996  0.43913396     0.08800
H2415       H  0.67101674  0.69451643  0.39662699     0.13300
H2416       H  0.61621523  0.62316259  0.48274336    -0.01000
H2417       H  0.71437954  0.62077139  0.48038567     0.13600
H2418       H  0.67006389  0.55029445  0.39629347     0.13400
C2419       C  0.93551600  0.49578334  0.60296179     0.85200
C2420       C  0.91611262  0.70123591  0.60954479    -0.55000
C2421       C  0.89099069  0.70069760  0.58707725     0.08100
C2422       C  0.88741235  0.49391848  0.56013064     0.19100
C2423       C  0.94176868  0.49671698  0.55839449    -0.55800
C2424       C  0.91643000  0.74576109  0.53546457     0.08200
C2425       C  0.91433317  0.53814355  0.61013247    -0.55300
C2426       C  0.88928260  0.53684841  0.58758917     0.08800
H2427       H  0.92154638  0.67287771  0.63010455     0.13300
H2428       H  0.86614031  0.49293043  0.54376891    -0.01000
H2429       H  0.96424201  0.49829528  0.54661902     0.13600
H2430       H  0.91890709  0.56705343  0.63054013     0.13400
C2431       C  0.93574777  0.74702907  0.42391148     0.85200
C2432       C  0.91580266  0.54093351  0.41710171    -0.55000
C2433       C  0.89065548  0.54088300  0.43945864     0.08100
C2434       C  0.88752417  0.74769833  0.46649521     0.19100
C2435       C  0.94190548  0.74657552  0.46850566    -0.55800
C2436       C  0.91649107  0.49683550  0.49130890     0.08200
C2437       C  0.91514008  0.70399258  0.41676023    -0.55300
C2438       C  0.88999638  0.70472065  0.43914608     0.08800
H2439       H  0.92099638  0.56948950  0.39661840     0.13300
H2440       H  0.86619958  0.74814949  0.48274958    -0.01000
H2441       H  0.96436406  0.74577645  0.48038725     0.13600
H2442       H  0.92004931  0.67526735  0.39630956     0.13400
O2443       O  0.53352563  0.53675929  0.63738114    -0.73100
O2444       O  0.97424428  0.53511841  0.38561219    -0.73300
O2445       O  0.53461355  0.53515393  0.38524286    -0.73200
O2446       O  0.97335865  0.53706873  0.63988169    -0.73200
O2447       O  0.97466367  0.70973305  0.64194830    -0.73100
O2448       O  0.53453118  0.70775554  0.38613607    -0.73100
O2449       O  0.97414329  0.70771714  0.38622654    -0.73100
O2450       O  0.53522631  0.70981179  0.64390756    -0.73300
V2451       V  0.50430031  0.53311307  0.34625085     1.35200
V2452       V  0.50430477  0.70873337  0.34692933     1.35200
C2453       C  0.54545411  0.74736973  0.62837848     0.76200
C2454       C  0.96312739  0.74660171  0.39820689     0.76200
C2455       C  0.54568673  0.49663876  0.39790522     0.76100
C2456       C  0.96288838  0.49748661  0.62870893     0.76000
C2457       C  0.57282065  0.74578748  0.60264912     0.85200
C2458       C  0.59402841  0.53793174  0.61025070    -0.55000
C2459       C  0.61912974  0.53677179  0.58779552     0.08100
C2460       C  0.62104149  0.74407596  0.56006518     0.19100
C2461       C  0.56668578  0.74718255  0.55806489    -0.55800
C2462       C  0.59209084  0.49613046  0.53526204     0.08200
C2463       C  0.59214056  0.70103057  0.60897520    -0.55300
C2464       C  0.61734922  0.70063480  0.58670994     0.08800
H2465       H  0.58936384  0.56668096  0.63077811     0.13300
H2466       H  0.64236179  0.74319131  0.54381352    -0.01000
H2467       H  0.54424493  0.74886105  0.54618660     0.13600
H2468       H  0.58667369  0.67249483  0.62934872     0.13400
C2469       C  0.57305729  0.49705843  0.42363522     0.85200
C2470       C  0.59369036  0.70403795  0.41654578    -0.55000
C2471       C  0.61877205  0.70474351  0.43907006     0.08100
C2472       C  0.62117680  0.49772957  0.46643158     0.19100
C2473       C  0.56679845  0.49659031  0.46819845    -0.55800
C2474       C  0.59215105  0.74693801  0.49111108     0.08400
C2475       C  0.59300921  0.54098367  0.41693403    -0.55300
C2476       C  0.61810857  0.54091203  0.43939452     0.08800
H2477       H  0.58882811  0.67533197  0.39605599     0.13300
H2478       H  0.64246052  0.49817816  0.48278286    -0.01000
H2479       H  0.54431159  0.49580916  0.47998316     0.13600
H2480       H  0.58785430  0.56956377  0.39645705     0.13400
C2481       C  0.82285006  0.63565483  0.93612145     0.85200
C2482       C  0.84168663  0.68100803  0.94193768    -0.55000
C2483       C  0.86688796  0.68172355  0.91963077     0.08100
C2484       C  0.87097060  0.63796788  0.89333615     0.19100
C2485       C  0.81665400  0.63329687  0.89155890    -0.55800
C2486       C  0.84200895  0.63446651  0.86865939     0.08200
C2487       C  0.84456154  0.59418296  0.94403046    -0.55300
C2488       C  0.86957791  0.59560966  0.92139835     0.08800
H2489       H  0.83603559  0.70950420  0.96225638     0.13300
H2490       H  0.89225998  0.63918985  0.87704466    -0.01000
H2491       H  0.79422237  0.63061777  0.87976629     0.13600
H2492       H  0.84016955  0.56543926  0.96467227     0.13400
C2493       C  0.82302751  0.63181726  0.75701726     0.85200
C2494       C  0.84374040  0.58902699  0.74980057    -0.55000
C2495       C  0.86877694  0.58967738  0.77227216     0.08100
C2496       C  0.87112285  0.63250329  0.79987563     0.19100
C2497       C  0.81673392  0.63126340  0.80159188    -0.55800
C2498       C  0.84207329  0.63211608  0.82453259     0.08200
C2499       C  0.84292101  0.67598398  0.75053319    -0.55300
C2500       C  0.86806111  0.67585877  0.77308052     0.08800
H2501       H  0.83892991  0.56040410  0.72920698     0.13300
H2502       H  0.89240450  0.63250596  0.81622130    -0.01000
H2503       H  0.79423561  0.63121821  0.81336674     0.13600
H2504       H  0.83774143  0.70463350  0.73014230     0.13400
O2505       O  0.78373783  0.59102038  0.72217362    -0.73100
O2506       O  0.72402399  0.59344450  0.97120121    -0.73300
O2507       O  0.78412552  0.59356077  0.97083684    -0.73200
O2508       O  0.72359272  0.59065181  0.72019964    -0.73200
O2509       O  0.72489353  0.66798829  0.71822398    -0.73100
O2510       O  0.78468256  0.67053423  0.97748698    -0.73100
O2511       O  0.72394687  0.67051300  0.97714696    -0.73100
O2512       O  0.78545782  0.66797235  0.71569469    -0.73300
V2513       V  0.75431220  0.58928173  0.68192057     1.35200
V2514       V  0.75430742  0.66347173  0.67793280     1.35200
C2515       C  0.79569625  0.63040045  0.73118192     0.76200
C2516       C  0.71286830  0.63328479  0.96199353     0.76200
C2517       C  0.79550724  0.63336243  0.96193893     0.76100
C2518       C  0.71317417  0.63021307  0.73149947     0.76000
C2519       C  0.68552925  0.63563959  0.93622959     0.85200
C2520       C  0.66391752  0.59384398  0.94355956    -0.55000
C2521       C  0.63889946  0.59552192  0.92090871     0.08100
C2522       C  0.63747972  0.63837363  0.89333890     0.19100
C2523       C  0.69181783  0.63415424  0.89169947    -0.55800
C2524       C  0.66651383  0.63551078  0.86874087     0.08200
C2525       C  0.66656849  0.68071831  0.94257060    -0.55300
C2526       C  0.64143314  0.68167196  0.92017312     0.08800
H2527       H  0.66830761  0.56485381  0.96396329     0.13300
H2528       H  0.61622632  0.63980280  0.87697298    -0.01000
H2529       H  0.71428006  0.63176388  0.87996977     0.13600
H2530       H  0.67216631  0.70896707  0.96315120     0.13400
C2531       C  0.68580031  0.63178738  0.75724058     0.85200
C2532       C  0.66575106  0.67547140  0.74981384    -0.55000
C2533       C  0.64062035  0.67574599  0.77235331     0.08100
C2534       C  0.63759896  0.63305401  0.79987697     0.19100
C2535       C  0.69199556  0.63251044  0.80182363    -0.55800
C2536       C  0.66658694  0.63340402  0.82463550     0.08200
C2537       C  0.66525696  0.58850293  0.75080382    -0.55300
C2538       C  0.64011496  0.58955520  0.77306626     0.08800
H2539       H  0.67096601  0.70371470  0.72905193     0.13300
H2540       H  0.61628115  0.63337422  0.81613162    -0.01000
H2541       H  0.71446808  0.63279810  0.81368456     0.13600
H2542       H  0.67010482  0.55945882  0.73063726     0.13400
C2543       C  0.93553109  0.51064507  0.93623532     0.85200
C2544       C  0.91391930  0.71885215  0.94357483    -0.55000
C2545       C  0.88890265  0.72052019  0.92092070     0.08100
C2546       C  0.88748377  0.51336223  0.89333982     0.19100
C2547       C  0.94182162  0.50914336  0.89170481    -0.55800
C2548       C  0.91651850  0.76049452  0.86874353     0.08200
C2549       C  0.91657054  0.55572566  0.94256265    -0.55300
C2550       C  0.89143677  0.55666994  0.92016307     0.08800
H2551       H  0.91830994  0.68986899  0.96398503     0.13300
H2552       H  0.86623058  0.51478495  0.87697334    -0.01000
H2553       H  0.96428430  0.50675402  0.87997666     0.13600
H2554       H  0.92216562  0.58398138  0.96313834     0.13400
C2555       C  0.93580594  0.75679883  0.75723964     0.85200
C2556       C  0.91575709  0.55048550  0.74982253    -0.55000
C2557       C  0.89062608  0.55075339  0.77236236     0.08100
C2558       C  0.88760435  0.75805327  0.79987746     0.19100
C2559       C  0.94200118  0.75750819  0.80182398    -0.55800
C2560       C  0.91659243  0.50839491  0.82463668     0.08200
C2561       C  0.91526076  0.71351677  0.75079503    -0.55300
C2562       C  0.89011862  0.71456255  0.77305758     0.08800
H2563       H  0.92097122  0.57873298  0.72906462     0.13300
H2564       H  0.86628636  0.75836938  0.81613206    -0.01000
H2565       H  0.96447352  0.75779309  0.81368554     0.13600
H2566       H  0.92010836  0.68447727  0.73062410     0.13400
O2567       O  0.53469694  0.54555143  0.97752512    -0.73100
O2568       O  0.97489996  0.54299782  0.71821306    -0.73300
O2569       O  0.53546726  0.54297387  0.71567371    -0.73200
O2570       O  0.97392173  0.54552194  0.97719621    -0.73200
O2571       O  0.97404685  0.71846230  0.97117502    -0.73100
O2572       O  0.53372805  0.71602751  0.72218829    -0.73100
O2573       O  0.97359445  0.71566205  0.72019277    -0.73100
O2574       O  0.53410122  0.71858687  0.97081474    -0.73300
V2575       V  0.50430937  0.53846787  0.67792225     1.35200
V2576       V  0.50431181  0.71428015  0.68192529     1.35200
C2577       C  0.54550225  0.75838335  0.96194527     0.76200
C2578       C  0.96317939  0.75522504  0.73149376     0.76200
C2579       C  0.54569540  0.50540554  0.73117942     0.76100
C2580       C  0.96286768  0.50829795  0.96200415     0.76000
C2581       C  0.57284529  0.76066643  0.93612354     0.85200
C2582       C  0.59167964  0.55602435  0.94192332    -0.55000
C2583       C  0.61688155  0.55673064  0.91961784     0.08100
C2584       C  0.62096612  0.76296383  0.89333636     0.19100
C2585       C  0.56664962  0.75828498  0.89156079    -0.55800
C2586       C  0.59200470  0.50944859  0.86866041     0.08200
C2587       C  0.59455983  0.71920008  0.94404531    -0.55300
C2588       C  0.61957631  0.72061763  0.92141107     0.08800
H2589       H  0.58602905  0.58452830  0.96223462     0.13300
H2590       H  0.64225541  0.76418126  0.87704456    -0.01000
H2591       H  0.54421820  0.75560036  0.87976853     0.13600
H2592       H  0.59016729  0.69046334  0.96469370     0.13400
C2593       C  0.57302505  0.50681801  0.75701631     0.85200
C2594       C  0.59373977  0.71403261  0.74978826    -0.55000
C2595       C  0.61877489  0.71467503  0.77226251     0.08100
C2596       C  0.62111933  0.50749152  0.79987605     0.19100
C2597       C  0.56673072  0.50624592  0.80159112    -0.55800
C2598       C  0.59206960  0.75709480  0.82453291     0.08400
C2599       C  0.59291609  0.55098845  0.75054408    -0.55300
C2600       C  0.61805605  0.55085578  0.77309048     0.08800
H2601       H  0.58892974  0.68541638  0.72918855     0.13300
H2602       H  0.64240102  0.50748964  0.81622174    -0.01000
H2603       H  0.54423229  0.50619747  0.81336564     0.13600
H2604       H  0.58773686  0.57964394  0.73015842     0.13400
C2605       C  0.82283073  0.87011468  0.26930525     0.85200
C2606       C  0.84310510  0.91363967  0.27612136    -0.55000
C2607       C  0.86822585  0.91319419  0.25371007     0.08100
C2608       C  0.87099716  0.87001987  0.22662187     0.19100
C2609       C  0.81660469  0.86991855  0.22473864    -0.55800
C2610       C  0.84198526  0.86985851  0.20188469     0.08200
C2611       C  0.84313381  0.82667854  0.27636106    -0.55300
C2612       C  0.86825374  0.82701578  0.25391839     0.08800
H2613       H  0.83808057  0.94233744  0.29654808     0.13300
H2614       H  0.89230552  0.87010623  0.21033977    -0.01000
H2615       H  0.79412356  0.86966961  0.21290808     0.13600
H2616       H  0.83810872  0.79810113  0.29689620     0.13400
C2617       C  0.82282979  0.86965830  0.09028851     0.85200
C2618       C  0.84198255  0.82475338  0.08381607    -0.55000
C2619       C  0.86714533  0.82397575  0.10622859     0.08100
C2620       C  0.87096706  0.86724906  0.13303124     0.19100
C2621       C  0.81662206  0.87081943  0.13486211    -0.55800
C2622       C  0.84198097  0.86938994  0.15773988     0.08200
C2623       C  0.84423235  0.91165006  0.08296883    -0.55300
C2624       C  0.86929318  0.91012878  0.10546660     0.08800
H2625       H  0.83643523  0.79644266  0.06327388     0.13300
H2626       H  0.89225766  0.86608818  0.14932851    -0.01000
H2627       H  0.79416533  0.87261300  0.14667991     0.13600
H2628       H  0.83972161  0.94060423  0.06257092     0.13400
O2629       O  0.78464661  0.83483523  0.04900963    -0.73100
O2630       O  0.72404201  0.83172264  0.30775335    -0.73300
O2631       O  0.78444450  0.83173857  0.30767794    -0.73200
O2632       O  0.72394098  0.83477887  0.04931999    -0.73200
O2633       O  0.72402591  0.91184392  0.05528355    -0.73100
O2634       O  0.78432443  0.90913937  0.30687435    -0.73100
O2635       O  0.72402026  0.90912193  0.30716109    -0.73100
O2636       O  0.78411310  0.91181560  0.05563169    -0.73300
V2637       V  0.75419058  0.84065529  0.01030598     1.35200
V2638       V  0.75419031  0.91469268  0.01616937     1.35200
C2639       C  0.79547555  0.87200229  0.06453895     0.76200
C2640       C  0.71294145  0.87028384  0.29518793     0.76200
C2641       C  0.79546341  0.87030427  0.29501557     0.76100
C2642       C  0.71288424  0.87198423  0.06451606     0.76000
C2643       C  0.68558364  0.87010396  0.26939286     0.85200
C2644       C  0.66532266  0.82655272  0.27620707    -0.55000
C2645       C  0.64019918  0.82698555  0.25374832     0.08100
C2646       C  0.63743107  0.87016393  0.22664661     0.19100
C2647       C  0.69181969  0.87023234  0.22480141    -0.55800
C2648       C  0.66643789  0.87020624  0.20191951     0.08200
C2649       C  0.66525322  0.91351534  0.27638032    -0.55300
C2650       C  0.64016322  0.91317006  0.25391524     0.08800
H2651       H  0.67035631  0.79787407  0.29664190     0.13300
H2652       H  0.61612580  0.87032781  0.21035606    -0.01000
H2653       H  0.71430151  0.87008319  0.21297402     0.13600
H2654       H  0.67024805  0.94212262  0.29690643     0.13400
C2655       C  0.68553563  0.86963826  0.09027922     0.85200
C2656       C  0.66408712  0.91152831  0.08280019    -0.55000
C2657       C  0.63904716  0.91008828  0.10531938     0.08100
C2658       C  0.63741450  0.86736394  0.13305216     0.19100
C2659       C  0.69175631  0.87107160  0.13485289    -0.55800
C2660       C  0.66641276  0.86969830  0.15775478     0.08200
C2661       C  0.66642311  0.82465556  0.08397831    -0.55300
C2662       C  0.64125263  0.82395441  0.10638826     0.08800
H2663       H  0.66856456  0.94039662  0.06230676     0.13300
H2664       H  0.61612576  0.86626382  0.14935340    -0.01000
H2665       H  0.71421455  0.87295656  0.14666055     0.13600
H2666       H  0.67197984  0.79628131  0.06350191     0.13400
C2667       C  0.93556809  0.74509286  0.26940235     0.85200
C2668       C  0.91530527  0.95154403  0.27621476    -0.55000
C2669       C  0.89018375  0.95197954  0.25375249     0.08100
C2670       C  0.88741828  0.74515962  0.22665226     0.19100
C2671       C  0.94180666  0.74522172  0.22481228    -0.55800
C2672       C  0.91642659  0.99520143  0.20192816     0.08200
C2673       C  0.91523967  0.78850642  0.27638952    -0.55300
C2674       C  0.89015076  0.78816391  0.25392274     0.08800
H2675       H  0.92033685  0.92286445  0.29664947     0.13300
H2676       H  0.86611364  0.74532610  0.21035972    -0.01000
H2677       H  0.96428922  0.74507062  0.21298735     0.13600
H2678       H  0.92023468  0.81711250  0.29691669     0.13400
C2679       C  0.93553390  0.99463216  0.09029062     0.85200
C2680       C  0.91408718  0.78652388  0.08280604    -0.55000
C2681       C  0.88904525  0.78508991  0.10532244     0.08100
C2682       C  0.88740890  0.99236867  0.13305811     0.19100
C2683       C  0.94175085  0.99607014  0.13486532    -0.55800
C2684       C  0.91640520  0.74470002  0.15776391     0.08200
C2685       C  0.91641964  0.94965036  0.08399252    -0.55300
C2686       C  0.89124714  0.94895564  0.10639910     0.08800
H2687       H  0.91856813  0.81538966  0.06231131     0.13300
H2688       H  0.86611883  0.99127302  0.14935695    -0.01000
H2689       H  0.96420839  0.99795155  0.14667606     0.13600
H2690       H  0.92197629  0.92127202  0.06351980     0.13400
O2691       O  0.53432599  0.78414232  0.30686764    -0.73100
O2692       O  0.97404741  0.78683297  0.05533262    -0.73300
O2693       O  0.53409953  0.78681341  0.05566881    -0.73200
O2694       O  0.97400092  0.78410417  0.30717793    -0.73200
O2695       O  0.97403102  0.95670434  0.30774681    -0.73100
O2696       O  0.53466086  0.95984124  0.04898634    -0.73100
O2697       O  0.97392153  0.95977704  0.04929411    -0.73100
O2698       O  0.53446194  0.95674202  0.30768401    -0.73300
V2699       V  0.50418973  0.78970800  0.01619089     1.35200
V2700       V  0.50418531  0.96567309  0.01030996     1.35200
C2701       C  0.54547406  0.99530990  0.29501563     0.76200
C2702       C  0.96288481  0.99697557  0.06452810     0.76200
C2703       C  0.54547751  0.74700119  0.06454295     0.76100
C2704       C  0.96292534  0.74526830  0.29519557     0.76000
C2705       C  0.57284308  0.99512401  0.26930454     0.85200
C2706       C  0.59312042  0.78864516  0.27612390    -0.55000
C2707       C  0.61824088  0.78819961  0.25371036     0.08100
C2708       C  0.62100899  0.99502854  0.22661795     0.19100
C2709       C  0.56661646  0.99493561  0.22473809    -0.55800
C2710       C  0.59199618  0.74487369  0.20188255     0.08200
C2711       C  0.59314499  0.95168386  0.27635420    -0.55300
C2712       C  0.61826481  0.95202121  0.25391089     0.08800
H2713       H  0.58809688  0.81734139  0.29655241     0.13300
H2714       H  0.64231638  0.99511469  0.21033367    -0.01000
H2715       H  0.54413489  0.99468973  0.21290865     0.13600
H2716       H  0.58811990  0.92310453  0.29688781     0.13400
C2717       C  0.57283380  0.74465660  0.09028816     0.85200
C2718       C  0.59198245  0.94974686  0.08382128    -0.55000
C2719       C  0.61714687  0.94897178  0.10623005     0.08100
C2720       C  0.62097375  0.74225067  0.13302574     0.19100
C2721       C  0.56662954  0.74583137  0.13486230    -0.55800
C2722       C  0.59198967  0.99440190  0.15773753     0.08400
C2723       C  0.59423878  0.78664289  0.08295815    -0.55300
C2724       C  0.61930056  0.78512453  0.10545480     0.08800
H2725       H  0.58643291  0.92143308  0.06328322     0.13300
H2726       H  0.64226527  0.74109013  0.14932091    -0.01000
H2727       H  0.54417352  0.74763121  0.14668242     0.13600
H2728       H  0.58972693  0.81559414  0.06255760     0.13400
C2729       C  0.82281408  0.87081180  0.60265606     0.85200
C2730       C  0.84401209  0.91297007  0.61024490    -0.55000
C2731       C  0.86911305  0.91181115  0.58779127     0.08100
C2732       C  0.87103263  0.86910591  0.56007115     0.19100
C2733       C  0.81667615  0.87218208  0.55807315    -0.55800
C2734       C  0.84207995  0.87113371  0.53526918     0.08200
C2735       C  0.84214305  0.82606801  0.60899613    -0.55300
C2736       C  0.86735014  0.82567404  0.58672818     0.08800
H2737       H  0.83934462  0.94172268  0.63076858     0.13300
H2738       H  0.89235267  0.86822668  0.54381892    -0.01000
H2739       H  0.79423429  0.87384164  0.54619664     0.13600
H2740       H  0.83668021  0.79753550  0.62937517     0.13400
C2741       C  0.82303944  0.87205057  0.42364352     0.85200
C2742       C  0.84367003  0.82902695  0.41655091    -0.55000
C2743       C  0.86875305  0.82972690  0.43907252     0.08100
C2744       C  0.87116077  0.87271000  0.46643690     0.19100
C2745       C  0.81678218  0.87158058  0.46820761    -0.55800
C2746       C  0.84213639  0.87192375  0.49111832     0.08200
C2747       C  0.84299351  0.91597327  0.41694467    -0.55300
C2748       C  0.86809328  0.91589577  0.43940428     0.08800
H2749       H  0.83880569  0.80032364  0.39605980     0.13300
H2750       H  0.89244532  0.87315251  0.48278616    -0.01000
H2751       H  0.79429555  0.87080826  0.47999397     0.13600
H2752       H  0.83783946  0.94455665  0.39647020     0.13400
O2753       O  0.78451818  0.83275583  0.38613175    -0.73100
O2754       O  0.72466926  0.83473156  0.64195555    -0.73300
O2755       O  0.78521668  0.83482482  0.64389262    -0.73200
O2756       O  0.72416442  0.83274290  0.38623439    -0.73200
O2757       O  0.72425004  0.91014410  0.38559707    -0.73100
O2758       O  0.78352912  0.91177827  0.63740263    -0.73100
O2759       O  0.72335824  0.91206706  0.63989197    -0.73100
O2760       O  0.78459707  0.91015434  0.38525063    -0.73300
V2761       V  0.75429114  0.83373830  0.34692734     1.35200
V2762       V  0.75429256  0.90811816  0.34624488     1.35200
C2763       C  0.79566988  0.87163712  0.39791059     0.76200
C2764       C  0.71289306  0.87248278  0.62871422     0.76200
C2765       C  0.79544978  0.87238927  0.62838249     0.76100
C2766       C  0.71314216  0.87162662  0.39820412     0.76000
C2767       C  0.68552379  0.87076924  0.60296082     0.85200
C2768       C  0.66612721  0.82621321  0.60954265    -0.55000
C2769       C  0.64100659  0.82566206  0.58707311     0.08100
C2770       C  0.63742357  0.86888017  0.56012325     0.19100
C2771       C  0.69177998  0.87170480  0.55839410    -0.55800
C2772       C  0.66644306  0.87073899  0.53546083     0.08200
C2773       C  0.66433318  0.91312030  0.61012663    -0.55300
C2774       C  0.63928422  0.91181275  0.58758002     0.08800
H2775       H  0.67156305  0.79786050  0.63010636     0.13300
H2776       H  0.61615306  0.86788043  0.54375870    -0.01000
H2777       H  0.71425380  0.87329898  0.54662128     0.13600
H2778       H  0.66890155  0.94203457  0.63053192     0.13400
C2779       C  0.68576420  0.87204849  0.42390881     0.85200
C2780       C  0.66582259  0.91595690  0.41710674    -0.55000
C2781       C  0.64067518  0.91590247  0.43946119     0.08100
C2782       C  0.63754023  0.87271099  0.46649019     0.19100
C2783       C  0.69192146  0.87157934  0.46850321    -0.55800
C2784       C  0.66650639  0.87183410  0.49130528     0.08200
C2785       C  0.66515432  0.82901606  0.41674776    -0.55300
C2786       C  0.64001035  0.82974007  0.43913393     0.08800
H2787       H  0.67101680  0.94451635  0.39662715     0.13300
H2788       H  0.61621526  0.87316279  0.48274332    -0.01000
H2789       H  0.71437968  0.87077125  0.48038580     0.13600
H2790       H  0.67006388  0.80029469  0.39629368     0.13400
C2791       C  0.93551598  0.74578330  0.60296183     0.85200
C2792       C  0.91611268  0.95123593  0.60954480    -0.55000
C2793       C  0.89099071  0.95069766  0.58707728     0.08100
C2794       C  0.88741235  0.74391849  0.56013062     0.19100
C2795       C  0.94176863  0.74671690  0.55839455    -0.55800
C2796       C  0.91643000  0.99576117  0.53546457     0.08200
C2797       C  0.91433315  0.78814352  0.61013249    -0.55300
C2798       C  0.88928262  0.78684843  0.58758914     0.08800
H2799       H  0.92154644  0.92287794  0.63010438     0.13300
H2800       H  0.86614031  0.74293047  0.54376885    -0.01000
H2801       H  0.96424215  0.74829519  0.54661898     0.13600
H2802       H  0.91890705  0.81705345  0.63054023     0.13400
C2803       C  0.93574780  0.99702918  0.42391149     0.85200
C2804       C  0.91580261  0.79093349  0.41710170    -0.55000
C2805       C  0.89065545  0.79088296  0.43945864     0.08100
C2806       C  0.88752421  0.99769833  0.46649519     0.19100
C2807       C  0.94190555  0.99657549  0.46850569    -0.55800
C2808       C  0.91649108  0.74683544  0.49130890     0.08200
C2809       C  0.91514012  0.95399272  0.41676021    -0.55300
C2810       C  0.88999643  0.95472063  0.43914605     0.08800
H2811       H  0.92099629  0.81948951  0.39661830     0.13300
H2812       H  0.86619958  0.99814942  0.48274958    -0.01000
H2813       H  0.96436393  0.99577641  0.48038717     0.13600
H2814       H  0.92004942  0.92526733  0.39630939     0.13400
O2815       O  0.53352564  0.78675935  0.63738109    -0.73100
O2816       O  0.97424423  0.78511836  0.38561216    -0.73300
O2817       O  0.53461352  0.78515390  0.38524286    -0.73200
O2818       O  0.97335869  0.78706869  0.63988166    -0.73200
O2819       O  0.97466365  0.95973308  0.64194834    -0.73100
O2820       O  0.53453126  0.95775558  0.38613606    -0.73100
O2821       O  0.97414328  0.95771729  0.38622650    -0.73100
O2822       O  0.53522629  0.95981176  0.64390759    -0.73300
V2823       V  0.50430032  0.78311310  0.34625084     1.35200
V2824       V  0.50430484  0.95873335  0.34692933     1.35200
C2825       C  0.54545404  0.99736973  0.62837846     0.76200
C2826       C  0.96312740  0.99660188  0.39820687     0.76200
C2827       C  0.54568666  0.74663874  0.39790525     0.76100
C2828       C  0.96288840  0.74748660  0.62870892     0.76000
C2829       C  0.57282060  0.99578748  0.60264909     0.85200
C2830       C  0.59402851  0.78793163  0.61025070    -0.55000
C2831       C  0.61912981  0.78677172  0.58779553     0.08100
C2832       C  0.62104150  0.99407597  0.56006517     0.19100
C2833       C  0.56668572  0.99718249  0.55806482    -0.55800
C2834       C  0.59209086  0.74613058  0.53526205     0.08200
C2835       C  0.59214054  0.95103065  0.60897518    -0.55300
C2836       C  0.61734921  0.95063485  0.58670997     0.08800
H2837       H  0.58936390  0.81668112  0.63077820     0.13300
H2838       H  0.64236173  0.99319130  0.54381366    -0.01000
H2839       H  0.54424506  0.99886094  0.54618662     0.13600
H2840       H  0.58667363  0.92249481  0.62934884     0.13400
C2841       C  0.57305725  0.74705848  0.42363523     0.85200
C2842       C  0.59369037  0.95403788  0.41654579    -0.55000
C2843       C  0.61877208  0.95474351  0.43907005     0.08100
C2844       C  0.62117680  0.74772963  0.46643157     0.19100
C2845       C  0.56679845  0.74659043  0.46819848    -0.55800
C2846       C  0.59215106  0.99693794  0.49111108     0.08400
C2847       C  0.59300916  0.79098374  0.41693402    -0.55300
C2848       C  0.61810853  0.79091212  0.43939451     0.08800
H2849       H  0.58882812  0.92533195  0.39605606     0.13300
H2850       H  0.64246048  0.74817820  0.48278282    -0.01000
H2851       H  0.54431153  0.74580939  0.47998322     0.13600
H2852       H  0.58785422  0.81956377  0.39645701     0.13400
C2853       C  0.82285003  0.88565495  0.93612144     0.85200
C2854       C  0.84168657  0.93100818  0.94193770    -0.55000
C2855       C  0.86688793  0.93172360  0.91963075     0.08100
C2856       C  0.87097056  0.88796789  0.89333617     0.19100
C2857       C  0.81665391  0.88329698  0.89155889    -0.55800
C2858       C  0.84200892  0.88446649  0.86865940     0.08200
C2859       C  0.84456149  0.84418297  0.94403051    -0.55300
C2860       C  0.86957791  0.84560969  0.92139837     0.08800
H2861       H  0.83603560  0.95950417  0.96225623     0.13300
H2862       H  0.89225997  0.88918986  0.87704463    -0.01000
H2863       H  0.79422248  0.88061801  0.87976638     0.13600
H2864       H  0.84016952  0.81543952  0.96467208     0.13400
C2865       C  0.82302750  0.88181725  0.75701727     0.85200
C2866       C  0.84374040  0.83902695  0.74980058    -0.55000
C2867       C  0.86877693  0.83967739  0.77227218     0.08100
C2868       C  0.87112284  0.88250328  0.79987564     0.19100
C2869       C  0.81673389  0.88126350  0.80159187    -0.55800
C2870       C  0.84207325  0.88211608  0.82453259     0.08200
C2871       C  0.84292099  0.92598397  0.75053319    -0.55300
C2872       C  0.86806111  0.92585877  0.77308050     0.08800
H2873       H  0.83892996  0.81040422  0.72920703     0.13300
H2874       H  0.89240446  0.88250587  0.81622128    -0.01000
H2875       H  0.79423556  0.88121842  0.81336674     0.13600
H2876       H  0.83774140  0.95463346  0.73014234     0.13400
O2877       O  0.78373784  0.84102032  0.72217364    -0.73100
O2878       O  0.72402395  0.84344455  0.97120126    -0.73300
O2879       O  0.78412544  0.84356093  0.97083679    -0.73200
O2880       O  0.72359279  0.84065179  0.72019966    -0.73200
O2881       O  0.72489363  0.91798827  0.71822401    -0.73100
O2882       O  0.78468250  0.92053438  0.97748695    -0.73100
O2883       O  0.72394684  0.92051304  0.97714695    -0.73100
O2884       O  0.78545789  0.91797228  0.71569461    -0.73300
V2885       V  0.75431222  0.83928168  0.68192057     1.35200
V2886       V  0.75430746  0.91347168  0.67793278     1.35200
C2887       C  0.79569628  0.88040039  0.73118191     0.76200
C2888       C  0.71286830  0.88328481  0.96199352     0.76200
C2889       C  0.79550717  0.88336257  0.96193891     0.76100
C2890       C  0.71317425  0.88021308  0.73149947     0.76000
C2891       C  0.68552928  0.88563954  0.93622957     0.85200
C2892       C  0.66391752  0.84384391  0.94355957    -0.55000
C2893       C  0.63889947  0.84552193  0.92090868     0.08100
C2894       C  0.63747981  0.88837369  0.89333892     0.19100
C2895       C  0.69181792  0.88415419  0.89169944    -0.55800
C2896       C  0.66651389  0.88551087  0.86874085     0.08200
C2897       C  0.66656857  0.93071824  0.94257057    -0.55300
C2898       C  0.64143321  0.93167197  0.92017315     0.08800
H2899       H  0.66830752  0.81485385  0.96396325     0.13300
H2900       H  0.61622630  0.88980297  0.87697287    -0.01000
H2901       H  0.71427995  0.88176371  0.87996984     0.13600
H2902       H  0.67216647  0.95896713  0.96315128     0.13400
C2903       C  0.68580038  0.88178740  0.75724057     0.85200
C2904       C  0.66575114  0.92547152  0.74981381    -0.55000
C2905       C  0.64062040  0.92574603  0.77235331     0.08100
C2906       C  0.63759906  0.88305403  0.79987693     0.19100
C2907       C  0.69199567  0.88251043  0.80182363    -0.55800
C2908       C  0.66658701  0.88340400  0.82463549     0.08200
C2909       C  0.66525703  0.83850294  0.75080381    -0.55300
C2910       C  0.64011500  0.83955523  0.77306622     0.08800
H2911       H  0.67096604  0.95371460  0.72905211     0.13300
H2912       H  0.61628115  0.88337420  0.81613173    -0.01000
H2913       H  0.71446802  0.88279816  0.81368446     0.13600
H2914       H  0.67010490  0.80945881  0.73063730     0.13400
C2915       C  0.93553113  0.76064499  0.93623531     0.85200
C2916       C  0.91391924  0.96885222  0.94357484    -0.55000
C2917       C  0.88890263  0.97052021  0.92092068     0.08100
C2918       C  0.88748383  0.76336218  0.89333986     0.19100
C2919       C  0.94182166  0.75914329  0.89170479    -0.55800
C2920       C  0.91651849  0.01049451  0.86874353     0.08200
C2921       C  0.91657056  0.80572557  0.94256268    -0.55300
C2922       C  0.89143678  0.80666991  0.92016307     0.08800
H2923       H  0.91830988  0.93986905  0.96398506     0.13300
H2924       H  0.86623052  0.76478490  0.87697324    -0.01000
H2925       H  0.96428429  0.75675399  0.87997664     0.13600
H2926       H  0.92216563  0.83398125  0.96313843     0.13400
C2927       C  0.93580593  0.00679891  0.75723964     0.85200
C2928       C  0.91575713  0.80048561  0.74982255    -0.55000
C2929       C  0.89062611  0.80075344  0.77236235     0.08100
C2930       C  0.88760435  0.00805327  0.79987748     0.19100
C2931       C  0.94200120  0.00750831  0.80182398    -0.55800
C2932       C  0.91659244  0.75839497  0.82463668     0.08200
C2933       C  0.91526073  0.96351688  0.75079501    -0.55300
C2934       C  0.89011859  0.96456260  0.77305757     0.08800
H2935       H  0.92097130  0.82873304  0.72906472     0.13300
H2936       H  0.86628633  0.00836930  0.81613213    -0.01000
H2937       H  0.96447348  0.00779330  0.81368550     0.13600
H2938       H  0.92010831  0.93447740  0.73062402     0.13400
O2939       O  0.53469688  0.79555148  0.97752511    -0.73100
O2940       O  0.97490001  0.79299779  0.71821308    -0.73300
O2941       O  0.53546735  0.79297393  0.71567367    -0.73200
O2942       O  0.97392177  0.79552186  0.97719618    -0.73200
O2943       O  0.97404677  0.96846229  0.97117504    -0.73100
O2944       O  0.53372798  0.96602747  0.72218831    -0.73100
O2945       O  0.97359451  0.96566210  0.72019284    -0.73100
O2946       O  0.53410126  0.96858680  0.97081475    -0.73300
V2947       V  0.50430942  0.78846791  0.67792225     1.35200
V2948       V  0.50431176  0.96428011  0.68192530     1.35200
C2949       C  0.54550229  0.00838327  0.96194528     0.76200
C2950       C  0.96317940  0.00522508  0.73149376     0.76200
C2951       C  0.54569547  0.75540558  0.73117938     0.76100
C2952       C  0.96286775  0.75829787  0.96200412     0.76000
C2953       C  0.57284532  0.01066637  0.93612353     0.85200
C2954       C  0.59167966  0.80602433  0.94192336    -0.55000
C2955       C  0.61688153  0.80673068  0.91961783     0.08100
C2956       C  0.62096617  0.01296380  0.89333634     0.19100
C2957       C  0.56664958  0.00828490  0.89156079    -0.55800
C2958       C  0.59200467  0.75944865  0.86866040     0.08200
C2959       C  0.59455989  0.96920002  0.94404535    -0.55300
C2960       C  0.61957638  0.97061764  0.92141108     0.08800
H2961       H  0.58602907  0.83452831  0.96223477     0.13300
H2962       H  0.64225536  0.01418123  0.87704462    -0.01000
H2963       H  0.54421834  0.00560029  0.87976866     0.13600
H2964       H  0.59016742  0.94046350  0.96469363     0.13400
C2965       C  0.57302509  0.75681806  0.75701630     0.85200
C2966       C  0.59373981  0.96403271  0.74978827    -0.55000
C2967       C  0.61877491  0.96467505  0.77226249     0.08100
C2968       C  0.62111931  0.75749160  0.79987606     0.19100
C2969       C  0.56673065  0.75624600  0.80159110    -0.55800
C2970       C  0.59206960  0.00709471  0.82453292     0.08400
C2971       C  0.59291607  0.80098859  0.75054406    -0.55300
C2972       C  0.61805606  0.80085584  0.77309048     0.08800
H2973       H  0.58892974  0.93541628  0.72918833     0.13300
H2974       H  0.64240101  0.75748974  0.81622180    -0.01000
H2975       H  0.54423237  0.75619761  0.81336549     0.13600
H2976       H  0.58773688  0.82964391  0.73015861     0.13400
loop_ 
_geom_bond_atom_site_label_1 
_geom_bond_atom_site_label_2 
_geom_bond_distance 
_geom_bond_site_symmetry_2 
_ccdc_geom_bond_type 
C1            C2   1.539       .  S
C1            C7   1.539       .  S
C1            C5   1.539       .  S
C1           C37   1.505       .  S
C2            H9   1.087       .  S
C2            C3   1.358       .  D
C3            C4   1.526       .  S
C3           C65   1.467       .  S
C4            C8   1.527       .  S
C4            C6   1.547       .  S
C4           H10   1.103       .  S
C5           H11   1.084       .  S
C5            C6   1.376       .  D
C6           C18   1.500       .  S
C7           H12   1.086       .  S
C7            C8   1.359       .  D
C8           C70   1.466       .  S
C13          C14   1.540       .  S
C13          C19   1.539       .  S
C13          C17   1.540       .  S
C13          C35   1.507       .  S
C14          H21   1.086       .  S
C14          C15   1.360       .  D
C15          C16   1.527       .  S
C15          C77   1.467       .  S
C16          C20   1.526       .  S
C16          C18   1.547       .  S
C16          H22   1.103       .  S
C17          H23   1.084       .  S
C17          C18   1.377       .  D
C19          H24   1.087       .  S
C19          C20   1.358       .  D
C20          C82   1.468       .  S
O25          V33   1.901       .  S
O25          C35   1.265       .  A
O26         V157   1.900       .  S
O26          C36   1.265       .  A
O27         V157   1.898       .  S
O27          C37   1.265       .  A
O28          V33   1.902       .  S
O28          C38   1.265       .  A
O29          V34   1.896       .  S
O29          C38   1.264       .  A
O30         V158   1.897       .  S
O30          C37   1.264       .  A
O31         V158   1.898       .  S
O31          C36   1.265       .  A
O32          V34   1.897       .  S
O32          C35   1.264       .  A
V33         O274   1.896   1_554  S
V33         O275   1.898   1_554  S
V33          V34   2.087       .  T
V34         O278   1.902   1_554  S
V34         O279   1.902   1_554  S
C36          C39   1.506       .  S
C38          C51   1.507       .  S
C39          C40   1.539       .  S
C39          C45   1.539       .  S
C39          C43   1.540       .  S
C40          H47   1.086       .  S
C40          C41   1.359       .  D
C41          C42   1.527       .  S
C41         C103   1.467       .  S
C42          C46   1.526       .  S
C42          C44   1.547       .  S
C42          H48   1.103       .  S
C43          H49   1.084       .  S
C43          C44   1.377       .  D
C44          C56   1.500       .  S
C45          H50   1.086       .  S
C45          C46   1.358       .  D
C46         C108   1.466       .  S
C51          C52   1.539       .  S
C51          C57   1.540       .  S
C51          C55   1.540       .  S
C52          H59   1.087       .  S
C52          C53   1.358       .  D
C53          C54   1.526       .  S
C53         C115   1.467       .  S
C54          C58   1.528       .  S
C54          C56   1.547       .  S
C54          H60   1.103       .  S
C55          H61   1.084       .  S
C55          C56   1.376       .  D
C57          H62   1.086       .  S
C57          C58   1.360       .  D
C58         C120   1.468       .  S
C63          C69   1.539   1_565  S
C63          C67   1.540       .  S
C63        C1180   1.539       .  S
C63         C100   1.506       .  S
C64         C435   1.539       .  S
C64          H71   1.086       .  S
C64          C65   1.359       .  D
C65         C438   1.527       .  S
C66          C70   1.526   1_565  S
C66        C1181   1.527       .  S
C66        C1184   1.547       .  S
C66          H72   1.103       .  S
C67          H73   1.084       .  S
C67        C1184   1.377       .  D
C68         C438   1.547       .  S
C68         C439   1.377       .  D
C68         C452   1.500       .  S
C69          H74   1.086       .  S
C69          C70   1.358       .  D
C75          C81   1.540       .  S
C75          C79   1.540       .  S
C75         C448   1.539       .  S
C75          C98   1.507       .  S
C76        C1191   1.539   1_545  S
C76          H83   1.087       .  S
C76          C77   1.358       .  D
C77        C1194   1.526   1_545  S
C78          C82   1.528       .  S
C78         C449   1.526       .  S
C78         C452   1.547       .  S
C78          H84   1.103       .  S
C79          H85   1.084       .  S
C79         C452   1.376       .  D
C80        C1194   1.547       .  S
C80        C1195   1.376       .  D
C80        C1184   1.500       .  S
C81          H86   1.086       .  S
C81          C82   1.360       .  D
O87         V219   1.897       .  S
O87        C1213   1.264   1_545  A
O88        V1583   1.896       .  S
O88        C1214   1.264   1_545  A
O89          V95   1.897       .  S
O89          C99   1.264   1_545  A
O90        V1707   1.897       .  S
O90         C100   1.265   1_545  A
O91        V1708   1.900       .  S
O91         C472   1.265       .  A
O92          V96   1.901       .  S
O92         C471   1.265       .  A
O93        V1584   1.902       .  S
O93          C98   1.265       .  A
O94         V220   1.898       .  S
O94          C97   1.265       .  A
V95         O335   1.902   1_554  S
V95        O1576   1.896   1_455  S
V95        O1826   1.902   1_454  S
V95        V1212   2.087   1_545  T
V96        O1827   1.896   1_454  S
V96        O1581   1.902   1_455  S
V96         O342   1.898   1_554  S
V96         V467   2.087       .  T
C97         C101   1.505       .  S
C97         O459   1.264       .  A
C98         O460   1.264       .  A
C99         C113   1.507       .  S
C99        O1208   1.265       .  A
C100       O1207   1.265       .  A
C101        C107   1.539       .  S
C101        C105   1.539       .  S
C101        C474   1.539       .  S
C102       C1217   1.539   1_545  S
C102        H109   1.087       .  S
C102        C103   1.358       .  D
C103       C1220   1.526   1_545  S
C104        C108   1.527       .  S
C104        C475   1.526       .  S
C104        C478   1.547       .  S
C104        H110   1.103       .  S
C105        H111   1.084       .  S
C105        C478   1.376       .  D
C106       C1220   1.547       .  S
C106       C1221   1.376       .  D
C106       C1234   1.500       .  S
C107        H112   1.086       .  S
C107        C108   1.359       .  D
C113        C119   1.539   1_565  S
C113        C117   1.540       .  S
C113       C1230   1.540       .  S
C114        C485   1.540       .  S
C114        H121   1.086       .  S
C114        C115   1.360       .  D
C115        C488   1.527       .  S
C116        C120   1.526   1_565  S
C116       C1231   1.527       .  S
C116       C1234   1.547       .  S
C116        H122   1.103       .  S
C117        H123   1.084       .  S
C117       C1234   1.377       .  D
C118        C488   1.547       .  S
C118        C489   1.377       .  D
C118        C478   1.500       .  S
C119        H124   1.087       .  S
C119        C120   1.358       .  D
C125        C126   1.538       .  S
C125        C131   1.540       .  S
C125        C129   1.540       .  S
C125        C161   1.506       .  S
C126        H133   1.087       .  S
C126        C127   1.359       .  D
C127        C128   1.526       .  S
C127        C189   1.467       .  S
C128        C132   1.527       .  S
C128        C130   1.547       .  S
C128        H134   1.103       .  S
C129        H135   1.084       .  S
C129        C130   1.377       .  D
C130        C142   1.500       .  S
C131        H136   1.086       .  S
C131        C132   1.359       .  D
C132        C194   1.467       .  S
C137        C138   1.539       .  S
C137        C143   1.539       .  S
C137        C141   1.540       .  S
C137        C159   1.505       .  S
C138        H145   1.087       .  S
C138        C139   1.359       .  D
C139        C140   1.527       .  S
C139        C201   1.466       .  S
C140        C144   1.527       .  S
C140        C142   1.547       .  S
C140        H146   1.103       .  S
C141        H147   1.084       .  S
C141        C142   1.376       .  D
C143        H148   1.086       .  S
C143        C144   1.358       .  D
C144        C206   1.466       .  S
O149        V157   1.899       .  S
O149        C159   1.265       .  A
O150        V281   1.903       .  S
O150        C160   1.266       .  A
O151        V281   1.897       .  S
O151        C161   1.264       .  A
O152        V157   1.898       .  S
O152        C162   1.265       .  A
O153        V158   1.897       .  S
O153        C162   1.264       .  A
O154        V282   1.900       .  S
O154        C161   1.265       .  A
O155        V282   1.895       .  S
O155        C160   1.264       .  A
O156        V158   1.897       .  S
O156        C159   1.264       .  A
V157        V158   2.087       .  T
C160        C163   1.507       .  S
C162        C175   1.505       .  S
C163        C164   1.539       .  S
C163        C169   1.540       .  S
C163        C167   1.540       .  S
C164        H171   1.086       .  S
C164        C165   1.359       .  D
C165        C166   1.528       .  S
C165        C227   1.467       .  S
C166        C170   1.526       .  S
C166        C168   1.547       .  S
C166        H172   1.103       .  S
C167        H173   1.084       .  S
C167        C168   1.377       .  D
C168        C180   1.500       .  S
C169        H174   1.087       .  S
C169        C170   1.359       .  D
C170        C232   1.467       .  S
C175        C176   1.539       .  S
C175        C181   1.539       .  S
C175        C179   1.540       .  S
C176        H183   1.086       .  S
C176        C177   1.358       .  D
C177        C178   1.527       .  S
C177        C239   1.466       .  S
C178        C182   1.526       .  S
C178        C180   1.547       .  S
C178        H184   1.103       .  S
C179        H185   1.084       .  S
C179        C180   1.377       .  D
C181        H186   1.087       .  S
C181        C182   1.359       .  D
C182        C244   1.466       .  S
C187       C1304   1.539       .  S
C187        C193   1.540   1_565  S
C187        C191   1.540       .  S
C187        C224   1.506       .  S
C188        C559   1.539       .  S
C188        H195   1.086       .  S
C188        C189   1.359       .  D
C189        C562   1.528       .  S
C190       C1305   1.528       .  S
C190        C194   1.526   1_565  S
C190       C1308   1.547       .  S
C190        H196   1.103       .  S
C191        H197   1.084       .  S
C191       C1308   1.376       .  D
C192        C562   1.547       .  S
C192        C563   1.376       .  D
C192        C576   1.500       .  S
C193        H198   1.087       .  S
C193        C194   1.359       .  D
C199        C572   1.539       .  S
C199        C205   1.539       .  S
C199        C203   1.540       .  S
C199        C222   1.505       .  S
C200       C1315   1.539   1_545  S
C200        H207   1.086       .  S
C200        C201   1.358       .  D
C201       C1318   1.527   1_545  S
C202        C573   1.527       .  S
C202        C206   1.526       .  S
C202        C576   1.547       .  S
C202        H208   1.103       .  S
C203        H209   1.084       .  S
C203        C576   1.377       .  D
C204       C1318   1.547       .  S
C204       C1319   1.377       .  D
C204       C1308   1.500       .  S
C205        H210   1.087       .  S
C205        C206   1.359       .  D
O211        V343   1.900       .  S
O211       C1337   1.265   1_545  A
O212       V1707   1.897       .  S
O212       C1338   1.264   1_545  A
O213        V219   1.897       .  S
O213        C223   1.264   1_545  A
O214       V1831   1.895       .  S
O214        C224   1.264   1_545  A
O215       V1832   1.903       .  S
O215        C596   1.266       .  A
O216        V220   1.899       .  S
O216        C595   1.265       .  A
O217       V1708   1.898       .  S
O217        C222   1.265       .  A
O218        V344   1.897       .  S
O218        C221   1.264       .  A
V219       O1700   1.897   1_455  S
V219       O1578   1.897   1_455  S
V219       V1336   2.087   1_545  T
V220       O1579   1.900   1_455  S
V220       O1705   1.898   1_455  S
V220        V591   2.087       .  T
C221        C225   1.506       .  S
C221        O583   1.265       .  A
C222        O584   1.264       .  A
C223        C237   1.505       .  S
C223       O1332   1.265       .  A
C224       O1331   1.266       .  A
C225        C598   1.538       .  S
C225        C231   1.540       .  S
C225        C229   1.540       .  S
C226       C1341   1.538   1_545  S
C226        H233   1.087       .  S
C226        C227   1.359       .  D
C227       C1344   1.526   1_545  S
C228        C599   1.526       .  S
C228        C232   1.527       .  S
C228        C602   1.547       .  S
C228        H234   1.103       .  S
C229        H235   1.084       .  S
C229        C602   1.377       .  D
C230       C1344   1.547       .  S
C230       C1345   1.377       .  D
C230       C1358   1.500       .  S
C231        H236   1.086       .  S
C231        C232   1.359       .  D
C237       C1354   1.539       .  S
C237        C243   1.539   1_565  S
C237        C241   1.539       .  S
C238        C609   1.539       .  S
C238        H245   1.087       .  S
C238        C239   1.359       .  D
C239        C612   1.527       .  S
C240       C1355   1.527       .  S
C240        C244   1.527   1_565  S
C240       C1358   1.547       .  S
C240        H246   1.103       .  S
C241        H247   1.084       .  S
C241       C1358   1.376       .  D
C242        C612   1.547       .  S
C242        C613   1.376       .  D
C242        C602   1.500       .  S
C243        H248   1.086       .  S
C243        C244   1.358       .  D
C249        C250   1.539       .  S
C249        C255   1.540       .  S
C249        C253   1.540       .  S
C249        C285   1.508       .  S
C250        H257   1.086       .  S
C250        C251   1.359       .  D
C251        C252   1.529       .  S
C251        C313   1.469       .  S
C252        C256   1.525       .  S
C252        C254   1.547       .  S
C252        H258   1.103       .  S
C253        H259   1.084       .  S
C253        C254   1.377       .  D
C254        C266   1.500       .  S
C255        H260   1.087       .  S
C255        C256   1.359       .  D
C256        C318   1.468       .  S
C261        C262   1.537       .  S
C261        C267   1.542       .  S
C261        C265   1.540       .  S
C261        C283   1.507       .  S
C262        H269   1.087       .  S
C262        C263   1.356       .  D
C263        C264   1.528       .  S
C263        C325   1.466       .  S
C264        C268   1.525       .  S
C264        C266   1.547       .  S
C264        H270   1.103       .  S
C265        H271   1.084       .  S
C265        C266   1.377       .  D
C267        H272   1.086       .  S
C267        C268   1.362       .  D
C268        C330   1.468       .  S
O273        V281   1.900       .  S
O273        C283   1.265       .  A
O274        C284   1.264       .  A
O275        C285   1.264       .  A
O276        V281   1.893       .  S
O276        C286   1.264       .  A
O277        V282   1.904       .  S
O277        C286   1.266       .  A
O278        C285   1.266       .  A
O279        C284   1.266       .  A
O280        V282   1.899       .  S
O280        C283   1.264       .  A
V281        V282   2.086       .  T
C284        C287   1.506       .  S
C286        C299   1.506       .  S
C287        C288   1.541       .  S
C287        C293   1.539       .  S
C287        C291   1.539       .  S
C288        H295   1.087       .  S
C288        C289   1.360       .  D
C289        C290   1.525       .  S
C289        C351   1.469       .  S
C290        C294   1.529       .  S
C290        C292   1.548       .  S
C290        H296   1.103       .  S
C291        H297   1.084       .  S
C291        C292   1.376       .  D
C292        C304   1.499       .  S
C293        H298   1.086       .  S
C293        C294   1.359       .  D
C294        C356   1.468       .  S
C299        C300   1.540       .  S
C299        C305   1.539       .  S
C299        C303   1.540       .  S
C300        H307   1.086       .  S
C300        C301   1.361       .  D
C301        C302   1.526       .  S
C301        C363   1.466       .  S
C302        C306   1.527       .  S
C302        C304   1.547       .  S
C302        H308   1.103       .  S
C303        H309   1.084       .  S
C303        C304   1.377       .  D
C305        H310   1.087       .  S
C305        C306   1.357       .  D
C306        C368   1.468       .  S
C311       C1428   1.541   1_545  S
C311        C317   1.539       .  S
C311        C315   1.539       .  S
C311        C348   1.506       .  S
C312        C683   1.541       .  S
C312        H319   1.087       .  S
C312        C313   1.360       .  D
C313        C686   1.525       .  S
C314       C1429   1.525   1_545  S
C314        C318   1.529       .  S
C314       C1432   1.548       .  S
C314        H320   1.103       .  S
C315        H321   1.084       .  S
C315       C1432   1.376       .  D
C316        C686   1.548       .  S
C316        C687   1.376       .  D
C316        C700   1.499       .  S
C317        H322   1.086       .  S
C317        C318   1.359       .  D
C323        C696   1.540       .  S
C323        C329   1.539       .  S
C323        C327   1.540       .  S
C323        C346   1.506       .  S
C324       C1439   1.540       .  S
C324        H331   1.086       .  S
C324        C325   1.361       .  D
C325       C1442   1.526       .  S
C326        C697   1.526       .  S
C326        C330   1.527       .  S
C326        C700   1.547       .  S
C326        H332   1.103       .  S
C327        H333   1.084       .  S
C327        C700   1.377       .  D
C328       C1442   1.547       .  S
C328       C1443   1.377       .  D
C328       C1432   1.499       .  S
C329        H334   1.087       .  S
C329        C330   1.357       .  D
O335       C1461   1.266       .  A
O336       V1831   1.904       .  S
O336       C1462   1.266       .  A
O337        V343   1.899       .  S
O337        C347   1.264       .  A
O338       V1583   1.902   1_556  S
O338        C348   1.266       .  A
O339       V1584   1.896   1_556  S
O339        C720   1.264       .  A
O340        V344   1.899       .  S
O340        C719   1.265       .  A
O341       V1832   1.893       .  S
O341        C346   1.264       .  A
O342        C345   1.264       .  A
V343       O1824   1.904   1_455  S
V343       O1702   1.895   1_455  S
V343       V1460   2.086   1_545  T
V344       O1703   1.903   1_455  S
V344       O1829   1.893   1_455  S
V344        V715   2.086       .  T
C345        C349   1.508       .  S
C345        O707   1.266       .  A
C346        O708   1.266       .  A
C347        C361   1.506       .  S
C347       O1456   1.265   1_545  A
C348       O1455   1.264   1_545  A
C349        C722   1.539       .  S
C349        C355   1.540       .  S
C349        C353   1.540       .  S
C350       C1465   1.539       .  S
C350        H357   1.086       .  S
C350        C351   1.359       .  D
C351       C1468   1.529       .  S
C352        C723   1.529       .  S
C352        C356   1.525       .  S
C352        C726   1.547       .  S
C352        H358   1.103       .  S
C353        H359   1.084       .  S
C353        C726   1.377       .  D
C354       C1468   1.547       .  S
C354       C1469   1.377       .  D
C354       C1482   1.500       .  S
C355        H360   1.087       .  S
C355        C356   1.359       .  D
C361       C1478   1.537   1_545  S
C361        C367   1.542       .  S
C361        C365   1.540       .  S
C362        C733   1.537       .  S
C362        H369   1.087       .  S
C362        C363   1.356       .  D
C363        C736   1.528       .  S
C364       C1479   1.528   1_545  S
C364        C368   1.525       .  S
C364       C1482   1.547       .  S
C364        H370   1.103       .  S
C365        H371   1.084       .  S
C365       C1482   1.377       .  D
C366        C736   1.547       .  S
C366        C737   1.377       .  D
C366        C726   1.500       .  S
C367        H372   1.086       .  S
C367        C368   1.362       .  D
C373        C374   1.539       .  S
C373        C379   1.539       .  S
C373        C377   1.539       .  S
C373        C409   1.505       .  S
C374        H381   1.086       .  S
C374        C375   1.358       .  D
C375        C376   1.526       .  S
C375        C437   1.467       .  S
C376        C380   1.527       .  S
C376        C378   1.547       .  S
C376        H382   1.103       .  S
C377        H383   1.084       .  S
C377        C378   1.376       .  D
C378        C390   1.500       .  S
C379        H384   1.086       .  S
C379        C380   1.359       .  D
C380        C442   1.466       .  S
C385        C386   1.540       .  S
C385        C391   1.539       .  S
C385        C389   1.540       .  S
C385        C407   1.507       .  S
C386        H393   1.086       .  S
C386        C387   1.360       .  D
C387        C388   1.527       .  S
C387        C449   1.467       .  S
C388        C392   1.526       .  S
C388        C390   1.547       .  S
C388        H394   1.103       .  S
C389        H395   1.084       .  S
C389        C390   1.377       .  D
C391        H396   1.087       .  S
C391        C392   1.358       .  D
C392        C454   1.468       .  S
O397        V405   1.901       .  S
O397        C407   1.265       .  A
O398        V529   1.900       .  S
O398        C408   1.265       .  A
O399        V529   1.898       .  S
O399        C409   1.265       .  A
O400        V405   1.902       .  S
O400        C410   1.265       .  A
O401        V406   1.896       .  S
O401        C410   1.264       .  A
O402        V530   1.897       .  S
O402        C409   1.264       .  A
O403        V530   1.898       .  S
O403        C408   1.265       .  A
O404        V406   1.897       .  S
O404        C407   1.264       .  A
V405        O646   1.896   1_554  S
V405        O647   1.898   1_554  S
V405        V406   2.087       .  T
V406        O650   1.902   1_554  S
V406        O651   1.902   1_554  S
C408        C411   1.506       .  S
C410        C423   1.507       .  S
C411        C412   1.539       .  S
C411        C417   1.539       .  S
C411        C415   1.540       .  S
C412        H419   1.086       .  S
C412        C413   1.359       .  D
C413        C414   1.527       .  S
C413        C475   1.467       .  S
C414        C418   1.526       .  S
C414        C416   1.547       .  S
C414        H420   1.103       .  S
C415        H421   1.084       .  S
C415        C416   1.377       .  D
C416        C428   1.500       .  S
C417        H422   1.086       .  S
C417        C418   1.358       .  D
C418        C480   1.466       .  S
C423        C424   1.539       .  S
C423        C429   1.540       .  S
C423        C427   1.540       .  S
C424        H431   1.087       .  S
C424        C425   1.358       .  D
C425        C426   1.526       .  S
C425        C487   1.467       .  S
C426        C430   1.528       .  S
C426        C428   1.547       .  S
C426        H432   1.103       .  S
C427        H433   1.084       .  S
C427        C428   1.376       .  D
C429        H434   1.086       .  S
C429        C430   1.360       .  D
C430        C492   1.468       .  S
C435        C441   1.539       .  S
C435        C439   1.540       .  S
C435        C472   1.506       .  S
C436        C807   1.539       .  S
C436        H443   1.086       .  S
C436        C437   1.359       .  D
C437        C810   1.527       .  S
C438        C442   1.526       .  S
C438        H444   1.103       .  S
C439        H445   1.084       .  S
C440        C810   1.547       .  S
C440        C811   1.377       .  D
C440        C824   1.500       .  S
C441        H446   1.086       .  S
C441        C442   1.358       .  D
C447        C820   1.539       .  S
C447        C453   1.540       .  S
C447        C451   1.540       .  S
C447        C470   1.507       .  S
C448        H455   1.087       .  S
C448        C449   1.358       .  D
C450        C821   1.526       .  S
C450        C454   1.528       .  S
C450        C824   1.547       .  S
C450        H456   1.103       .  S
C451        H457   1.084       .  S
C451        C824   1.376       .  D
C453        H458   1.086       .  S
C453        C454   1.360       .  D
O459        V591   1.897       .  S
O460       V1955   1.896       .  S
O461        V467   1.897       .  S
O461        C471   1.264       .  A
O462       V2079   1.897       .  S
O462        C472   1.265       .  A
O463       V2080   1.900       .  S
O463        C844   1.265       .  A
O464        V468   1.901       .  S
O464        C843   1.265       .  A
O465       V1956   1.902       .  S
O465        C470   1.265       .  A
O466        V592   1.898       .  S
O466        C469   1.265       .  A
V467        O707   1.902   1_554  S
V467       O1948   1.896   1_455  S
V467       O2198   1.902   1_454  S
V468       O2199   1.896   1_454  S
V468       O1953   1.902   1_455  S
V468        O714   1.898   1_554  S
V468        V839   2.087       .  T
C469        C473   1.505       .  S
C469        O831   1.264       .  A
C470        O832   1.264       .  A
C471        C485   1.507       .  S
C473        C846   1.539       .  S
C473        C479   1.539       .  S
C473        C477   1.539       .  S
C474        H481   1.087       .  S
C474        C475   1.358       .  D
C476        C847   1.526       .  S
C476        C480   1.527       .  S
C476        C850   1.547       .  S
C476        H482   1.103       .  S
C477        H483   1.084       .  S
C477        C850   1.376       .  D
C479        H484   1.086       .  S
C479        C480   1.359       .  D
C485        C491   1.539       .  S
C485        C489   1.540       .  S
C486        C857   1.540       .  S
C486        H493   1.086       .  S
C486        C487   1.360       .  D
C487        C860   1.527       .  S
C488        C492   1.526       .  S
C488        H494   1.103       .  S
C489        H495   1.084       .  S
C490        C860   1.547       .  S
C490        C861   1.377       .  D
C490        C850   1.500       .  S
C491        H496   1.087       .  S
C491        C492   1.358       .  D
C497        C498   1.538       .  S
C497        C503   1.540       .  S
C497        C501   1.540       .  S
C497        C533   1.506       .  S
C498        H505   1.087       .  S
C498        C499   1.359       .  D
C499        C500   1.526       .  S
C499        C561   1.467       .  S
C500        C504   1.527       .  S
C500        C502   1.547       .  S
C500        H506   1.103       .  S
C501        H507   1.084       .  S
C501        C502   1.377       .  D
C502        C514   1.500       .  S
C503        H508   1.086       .  S
C503        C504   1.359       .  D
C504        C566   1.467       .  S
C509        C510   1.539       .  S
C509        C515   1.539       .  S
C509        C513   1.540       .  S
C509        C531   1.505       .  S
C510        H517   1.087       .  S
C510        C511   1.359       .  D
C511        C512   1.527       .  S
C511        C573   1.466       .  S
C512        C516   1.527       .  S
C512        C514   1.547       .  S
C512        H518   1.103       .  S
C513        H519   1.084       .  S
C513        C514   1.376       .  D
C515        H520   1.086       .  S
C515        C516   1.358       .  D
C516        C578   1.466       .  S
O521        V529   1.899       .  S
O521        C531   1.265       .  A
O522        V653   1.903       .  S
O522        C532   1.266       .  A
O523        V653   1.897       .  S
O523        C533   1.264       .  A
O524        V529   1.898       .  S
O524        C534   1.265       .  A
O525        V530   1.897       .  S
O525        C534   1.264       .  A
O526        V654   1.900       .  S
O526        C533   1.265       .  A
O527        V654   1.895       .  S
O527        C532   1.264       .  A
O528        V530   1.897       .  S
O528        C531   1.264       .  A
V529        V530   2.087       .  T
C532        C535   1.507       .  S
C534        C547   1.505       .  S
C535        C536   1.539       .  S
C535        C541   1.540       .  S
C535        C539   1.540       .  S
C536        H543   1.086       .  S
C536        C537   1.359       .  D
C537        C538   1.528       .  S
C537        C599   1.467       .  S
C538        C542   1.526       .  S
C538        C540   1.547       .  S
C538        H544   1.103       .  S
C539        H545   1.084       .  S
C539        C540   1.377       .  D
C540        C552   1.500       .  S
C541        H546   1.087       .  S
C541        C542   1.359       .  D
C542        C604   1.467       .  S
C547        C548   1.539       .  S
C547        C553   1.539       .  S
C547        C551   1.540       .  S
C548        H555   1.086       .  S
C548        C549   1.358       .  D
C549        C550   1.527       .  S
C549        C611   1.466       .  S
C550        C554   1.526       .  S
C550        C552   1.547       .  S
C550        H556   1.103       .  S
C551        H557   1.084       .  S
C551        C552   1.377       .  D
C553        H558   1.087       .  S
C553        C554   1.359       .  D
C554        C616   1.466       .  S
C559        C565   1.540       .  S
C559        C563   1.540       .  S
C559        C596   1.506       .  S
C560        C931   1.539       .  S
C560        H567   1.086       .  S
C560        C561   1.359       .  D
C561        C934   1.528       .  S
C562        C566   1.526       .  S
C562        H568   1.103       .  S
C563        H569   1.084       .  S
C564        C934   1.547       .  S
C564        C935   1.376       .  D
C564        C948   1.500       .  S
C565        H570   1.087       .  S
C565        C566   1.359       .  D
C571        C944   1.539       .  S
C571        C577   1.539       .  S
C571        C575   1.540       .  S
C571        C594   1.505       .  S
C572        H579   1.086       .  S
C572        C573   1.358       .  D
C574        C945   1.527       .  S
C574        C578   1.526       .  S
C574        C948   1.547       .  S
C574        H580   1.103       .  S
C575        H581   1.084       .  S
C575        C948   1.377       .  D
C577        H582   1.087       .  S
C577        C578   1.359       .  D
O583        V715   1.900       .  S
O584       V2079   1.897       .  S
O585        V591   1.897       .  S
O585        C595   1.264       .  A
O586       V2203   1.895       .  S
O586        C596   1.264       .  A
O587       V2204   1.903       .  S
O587        C968   1.266       .  A
O588        V592   1.899       .  S
O588        C967   1.265       .  A
O589       V2080   1.898       .  S
O589        C594   1.265       .  A
O590        V716   1.897       .  S
O590        C593   1.264       .  A
V591       O2072   1.897   1_455  S
V591       O1950   1.897   1_455  S
V592       O1951   1.900   1_455  S
V592       O2077   1.898   1_455  S
V592        V963   2.087       .  T
C593        C597   1.506       .  S
C593        O955   1.265       .  A
C594        O956   1.264       .  A
C595        C609   1.505       .  S
C597        C970   1.538       .  S
C597        C603   1.540       .  S
C597        C601   1.540       .  S
C598        H605   1.087       .  S
C598        C599   1.359       .  D
C600        C971   1.526       .  S
C600        C604   1.527       .  S
C600        C974   1.547       .  S
C600        H606   1.103       .  S
C601        H607   1.084       .  S
C601        C974   1.377       .  D
C603        H608   1.086       .  S
C603        C604   1.359       .  D
C609        C615   1.539       .  S
C609        C613   1.539       .  S
C610        C981   1.539       .  S
C610        H617   1.087       .  S
C610        C611   1.359       .  D
C611        C984   1.527       .  S
C612        C616   1.527       .  S
C612        H618   1.103       .  S
C613        H619   1.084       .  S
C614        C984   1.547       .  S
C614        C985   1.376       .  D
C614        C974   1.500       .  S
C615        H620   1.086       .  S
C615        C616   1.358       .  D
C621        C622   1.539       .  S
C621        C627   1.540       .  S
C621        C625   1.540       .  S
C621        C657   1.508       .  S
C622        H629   1.086       .  S
C622        C623   1.359       .  D
C623        C624   1.529       .  S
C623        C685   1.469       .  S
C624        C628   1.525       .  S
C624        C626   1.547       .  S
C624        H630   1.103       .  S
C625        H631   1.084       .  S
C625        C626   1.377       .  D
C626        C638   1.500       .  S
C627        H632   1.087       .  S
C627        C628   1.359       .  D
C628        C690   1.468       .  S
C633        C634   1.537       .  S
C633        C639   1.542       .  S
C633        C637   1.540       .  S
C633        C655   1.507       .  S
C634        H641   1.087       .  S
C634        C635   1.356       .  D
C635        C636   1.528       .  S
C635        C697   1.466       .  S
C636        C640   1.525       .  S
C636        C638   1.547       .  S
C636        H642   1.103       .  S
C637        H643   1.084       .  S
C637        C638   1.377       .  D
C639        H644   1.086       .  S
C639        C640   1.362       .  D
C640        C702   1.468       .  S
O645        V653   1.900       .  S
O645        C655   1.265       .  A
O646        C656   1.264       .  A
O647        C657   1.264       .  A
O648        V653   1.893       .  S
O648        C658   1.264       .  A
O649        V654   1.904       .  S
O649        C658   1.266       .  A
O650        C657   1.266       .  A
O651        C656   1.266       .  A
O652        V654   1.899       .  S
O652        C655   1.264       .  A
V653        V654   2.086       .  T
C656        C659   1.506       .  S
C658        C671   1.506       .  S
C659        C660   1.541       .  S
C659        C665   1.539       .  S
C659        C663   1.539       .  S
C660        H667   1.087       .  S
C660        C661   1.360       .  D
C661        C662   1.525       .  S
C661        C723   1.469       .  S
C662        C666   1.529       .  S
C662        C664   1.548       .  S
C662        H668   1.103       .  S
C663        H669   1.084       .  S
C663        C664   1.376       .  D
C664        C676   1.499       .  S
C665        H670   1.086       .  S
C665        C666   1.359       .  D
C666        C728   1.468       .  S
C671        C672   1.540       .  S
C671        C677   1.539       .  S
C671        C675   1.540       .  S
C672        H679   1.086       .  S
C672        C673   1.361       .  D
C673        C674   1.526       .  S
C673        C735   1.466       .  S
C674        C678   1.527       .  S
C674        C676   1.547       .  S
C674        H680   1.103       .  S
C675        H681   1.084       .  S
C675        C676   1.377       .  D
C677        H682   1.087       .  S
C677        C678   1.357       .  D
C678        C740   1.468       .  S
C683        C689   1.539       .  S
C683        C687   1.539       .  S
C683        C720   1.506       .  S
C684       C1055   1.541       .  S
C684        H691   1.087       .  S
C684        C685   1.360       .  D
C685       C1058   1.525       .  S
C686        C690   1.529       .  S
C686        H692   1.103       .  S
C687        H693   1.084       .  S
C688       C1058   1.548       .  S
C688       C1059   1.376       .  D
C688       C1072   1.499       .  S
C689        H694   1.086       .  S
C689        C690   1.359       .  D
C695       C1068   1.540       .  S
C695        C701   1.539       .  S
C695        C699   1.540       .  S
C695        C718   1.506       .  S
C696        H703   1.086       .  S
C696        C697   1.361       .  D
C698       C1069   1.526       .  S
C698        C702   1.527       .  S
C698       C1072   1.547       .  S
C698        H704   1.103       .  S
C699        H705   1.084       .  S
C699       C1072   1.377       .  D
C701        H706   1.087       .  S
C701        C702   1.357       .  D
O708       V2203   1.904       .  S
O709        V715   1.899       .  S
O709        C719   1.264       .  A
O710       V1955   1.902   1_556  S
O710        C720   1.266       .  A
O711       V1956   1.896   1_556  S
O711       C1092   1.264       .  A
O712        V716   1.899       .  S
O712       C1091   1.265       .  A
O713       V2204   1.893       .  S
O713        C718   1.264       .  A
O714        C717   1.264       .  A
V715       O2196   1.904   1_455  S
V715       O2074   1.895   1_455  S
V716       O2075   1.903   1_455  S
V716       O2201   1.893   1_455  S
V716       V1087   2.086       .  T
C717        C721   1.508       .  S
C717       O1079   1.266       .  A
C718       O1080   1.266       .  A
C719        C733   1.506       .  S
C721       C1094   1.539       .  S
C721        C727   1.540       .  S
C721        C725   1.540       .  S
C722        H729   1.086       .  S
C722        C723   1.359       .  D
C724       C1095   1.529       .  S
C724        C728   1.525       .  S
C724       C1098   1.547       .  S
C724        H730   1.103       .  S
C725        H731   1.084       .  S
C725       C1098   1.377       .  D
C727        H732   1.087       .  S
C727        C728   1.359       .  D
C733        C739   1.542       .  S
C733        C737   1.540       .  S
C734       C1105   1.537       .  S
C734        H741   1.087       .  S
C734        C735   1.356       .  D
C735       C1108   1.528       .  S
C736        C740   1.525       .  S
C736        H742   1.103       .  S
C737        H743   1.084       .  S
C738       C1108   1.547       .  S
C738       C1109   1.377       .  D
C738       C1098   1.500       .  S
C739        H744   1.086       .  S
C739        C740   1.362       .  D
C745        C746   1.539       .  S
C745        C751   1.539       .  S
C745        C749   1.539       .  S
C745        C781   1.505       .  S
C746        H753   1.087       .  S
C746        C747   1.358       .  D
C747        C748   1.526       .  S
C747        C809   1.467       .  S
C748        C752   1.527       .  S
C748        C750   1.547       .  S
C748        H754   1.103       .  S
C749        H755   1.084       .  S
C749        C750   1.376       .  D
C750        C762   1.500       .  S
C751        H756   1.086       .  S
C751        C752   1.359       .  D
C752        C814   1.466       .  S
C757        C758   1.540       .  S
C757        C763   1.539       .  S
C757        C761   1.540       .  S
C757        C779   1.507       .  S
C758        H765   1.086       .  S
C758        C759   1.360       .  D
C759        C760   1.527       .  S
C759        C821   1.467       .  S
C760        C764   1.526       .  S
C760        C762   1.547       .  S
C760        H766   1.103       .  S
C761        H767   1.084       .  S
C761        C762   1.377       .  D
C763        H768   1.087       .  S
C763        C764   1.358       .  D
C764        C826   1.468       .  S
O769        V777   1.901       .  S
O769        C779   1.265       .  A
O770        V901   1.900       .  S
O770        C780   1.265       .  A
O771        V901   1.898       .  S
O771        C781   1.265       .  A
O772        V777   1.902       .  S
O772        C782   1.265       .  A
O773        V778   1.896       .  S
O773        C782   1.264       .  A
O774        V902   1.897       .  S
O774        C781   1.264       .  A
O775        V902   1.898       .  S
O775        C780   1.265       .  A
O776        V778   1.897       .  S
O776        C779   1.264       .  A
V777       O1018   1.896   1_554  S
V777       O1019   1.898   1_554  S
V777        V778   2.087       .  T
V778       O1022   1.902   1_554  S
V778       O1023   1.902   1_554  S
C780        C783   1.506       .  S
C782        C795   1.507       .  S
C783        C784   1.539       .  S
C783        C789   1.539       .  S
C783        C787   1.540       .  S
C784        H791   1.086       .  S
C784        C785   1.359       .  D
C785        C786   1.527       .  S
C785        C847   1.467       .  S
C786        C790   1.526       .  S
C786        C788   1.547       .  S
C786        H792   1.103       .  S
C787        H793   1.084       .  S
C787        C788   1.377       .  D
C788        C800   1.500       .  S
C789        H794   1.086       .  S
C789        C790   1.358       .  D
C790        C852   1.466       .  S
C795        C796   1.539       .  S
C795        C801   1.540       .  S
C795        C799   1.540       .  S
C796        H803   1.087       .  S
C796        C797   1.358       .  D
C797        C798   1.526       .  S
C797        C859   1.467       .  S
C798        C802   1.528       .  S
C798        C800   1.547       .  S
C798        H804   1.103       .  S
C799        H805   1.084       .  S
C799        C800   1.376       .  D
C801        H806   1.086       .  S
C801        C802   1.360       .  D
C802        C864   1.468       .  S
C807        C813   1.539       .  S
C807        C811   1.540       .  S
C807        C844   1.506       .  S
C808       C1179   1.539       .  S
C808        H815   1.086       .  S
C808        C809   1.359       .  D
C809       C1182   1.527       .  S
C810        C814   1.526       .  S
C810        H816   1.103       .  S
C811        H817   1.084       .  S
C812       C1182   1.547       .  S
C812       C1183   1.377       .  D
C812       C1196   1.500       .  S
C813        H818   1.087       .  S
C813        C814   1.358       .  D
C819       C1192   1.539       .  S
C819        C825   1.540       .  S
C819        C823   1.540       .  S
C819        C842   1.507       .  S
C820        H827   1.087       .  S
C820        C821   1.358       .  D
C822       C1193   1.526       .  S
C822        C826   1.528       .  S
C822       C1196   1.547       .  S
C822        H828   1.103       .  S
C823        H829   1.084       .  S
C823       C1196   1.376       .  D
C825        H830   1.086       .  S
C825        C826   1.360       .  D
O831        V963   1.897       .  S
O832       V2327   1.896       .  S
O833        V839   1.897       .  S
O833        C843   1.264       .  A
O834       V2451   1.897       .  S
O834        C844   1.265       .  A
O835       V2452   1.900       .  S
O835       C1216   1.265       .  A
O836        V840   1.901       .  S
O836       C1215   1.265       .  A
O837       V2328   1.902       .  S
O837        C842   1.265       .  A
O838        V964   1.898       .  S
O838        C841   1.265       .  A
V839       O1079   1.902   1_554  S
V839       O2320   1.896   1_455  S
V839       O2570   1.902   1_454  S
V840       O2571   1.896   1_454  S
V840       O2325   1.902   1_455  S
V840       O1086   1.898   1_554  S
V840       V1211   2.087       .  T
C841        C845   1.505       .  S
C841       O1203   1.264       .  A
C842       O1204   1.264       .  A
C843        C857   1.507       .  S
C845       C1218   1.539       .  S
C845        C851   1.539       .  S
C845        C849   1.539       .  S
C846        H853   1.087       .  S
C846        C847   1.358       .  D
C848       C1219   1.526       .  S
C848        C852   1.527       .  S
C848       C1222   1.547       .  S
C848        H854   1.103       .  S
C849        H855   1.084       .  S
C849       C1222   1.376       .  D
C851        H856   1.086       .  S
C851        C852   1.359       .  D
C857        C863   1.539       .  S
C857        C861   1.540       .  S
C858       C1229   1.540       .  S
C858        H865   1.086       .  S
C858        C859   1.360       .  D
C859       C1232   1.527       .  S
C860        C864   1.526       .  S
C860        H866   1.103       .  S
C861        H867   1.084       .  S
C862       C1232   1.547       .  S
C862       C1233   1.377       .  D
C862       C1222   1.500       .  S
C863        H868   1.087       .  S
C863        C864   1.358       .  D
C869        C870   1.538       .  S
C869        C875   1.540       .  S
C869        C873   1.540       .  S
C869        C905   1.506       .  S
C870        H877   1.087       .  S
C870        C871   1.359       .  D
C871        C872   1.526       .  S
C871        C933   1.467       .  S
C872        C876   1.527       .  S
C872        C874   1.547       .  S
C872        H878   1.103       .  S
C873        H879   1.084       .  S
C873        C874   1.377       .  D
C874        C886   1.500       .  S
C875        H880   1.086       .  S
C875        C876   1.359       .  D
C876        C938   1.467       .  S
C881        C882   1.539       .  S
C881        C887   1.539       .  S
C881        C885   1.540       .  S
C881        C903   1.505       .  S
C882        H889   1.087       .  S
C882        C883   1.359       .  D
C883        C884   1.527       .  S
C883        C945   1.466       .  S
C884        C888   1.527       .  S
C884        C886   1.547       .  S
C884        H890   1.103       .  S
C885        H891   1.084       .  S
C885        C886   1.376       .  D
C887        H892   1.086       .  S
C887        C888   1.358       .  D
C888        C950   1.466       .  S
O893        V901   1.899       .  S
O893        C903   1.265       .  A
O894       V1025   1.903       .  S
O894        C904   1.266       .  A
O895       V1025   1.897       .  S
O895        C905   1.264       .  A
O896        V901   1.898       .  S
O896        C906   1.265       .  A
O897        V902   1.897       .  S
O897        C906   1.264       .  A
O898       V1026   1.900       .  S
O898        C905   1.265       .  A
O899       V1026   1.895       .  S
O899        C904   1.264       .  A
O900        V902   1.897       .  S
O900        C903   1.264       .  A
V901        V902   2.087       .  T
C904        C907   1.507       .  S
C906        C919   1.505       .  S
C907        C908   1.539       .  S
C907        C913   1.540       .  S
C907        C911   1.540       .  S
C908        H915   1.086       .  S
C908        C909   1.359       .  D
C909        C910   1.528       .  S
C909        C971   1.467       .  S
C910        C914   1.526       .  S
C910        C912   1.547       .  S
C910        H916   1.103       .  S
C911        H917   1.084       .  S
C911        C912   1.377       .  D
C912        C924   1.500       .  S
C913        H918   1.087       .  S
C913        C914   1.359       .  D
C914        C976   1.467       .  S
C919        C920   1.539       .  S
C919        C925   1.539       .  S
C919        C923   1.540       .  S
C920        H927   1.086       .  S
C920        C921   1.358       .  D
C921        C922   1.527       .  S
C921        C983   1.466       .  S
C922        C926   1.526       .  S
C922        C924   1.547       .  S
C922        H928   1.103       .  S
C923        H929   1.084       .  S
C923        C924   1.377       .  D
C925        H930   1.087       .  S
C925        C926   1.359       .  D
C926        C988   1.466       .  S
C931        C937   1.540       .  S
C931        C935   1.540       .  S
C931        C968   1.506       .  S
C932       C1303   1.539       .  S
C932        H939   1.086       .  S
C932        C933   1.359       .  D
C933       C1306   1.528       .  S
C934        C938   1.526       .  S
C934        H940   1.103       .  S
C935        H941   1.084       .  S
C936       C1306   1.547       .  S
C936       C1307   1.376       .  D
C936       C1320   1.500       .  S
C937        H942   1.087       .  S
C937        C938   1.359       .  D
C943       C1316   1.539       .  S
C943        C949   1.539       .  S
C943        C947   1.540       .  S
C943        C966   1.505       .  S
C944        H951   1.086       .  S
C944        C945   1.358       .  D
C946       C1317   1.527       .  S
C946        C950   1.526       .  S
C946       C1320   1.547       .  S
C946        H952   1.103       .  S
C947        H953   1.084       .  S
C947       C1320   1.377       .  D
C949        H954   1.087       .  S
C949        C950   1.359       .  D
O955       V1087   1.900       .  S
O956       V2451   1.897       .  S
O957        V963   1.897       .  S
O957        C967   1.264       .  A
O958       V2575   1.895       .  S
O958        C968   1.264       .  A
O959       V2576   1.903       .  S
O959       C1340   1.266       .  A
O960        V964   1.899       .  S
O960       C1339   1.265       .  A
O961       V2452   1.898       .  S
O961        C966   1.265       .  A
O962       V1088   1.897       .  S
O962        C965   1.264       .  A
V963       O2444   1.897   1_455  S
V963       O2322   1.897   1_455  S
V964       O2323   1.900   1_455  S
V964       O2449   1.898   1_455  S
V964       V1335   2.087       .  T
C965        C969   1.506       .  S
C965       O1327   1.265       .  A
C966       O1328   1.264       .  A
C967        C981   1.505       .  S
C969       C1342   1.538       .  S
C969        C975   1.540       .  S
C969        C973   1.540       .  S
C970        H977   1.087       .  S
C970        C971   1.359       .  D
C972       C1343   1.526       .  S
C972        C976   1.527       .  S
C972       C1346   1.547       .  S
C972        H978   1.103       .  S
C973        H979   1.084       .  S
C973       C1346   1.377       .  D
C975        H980   1.086       .  S
C975        C976   1.359       .  D
C981        C987   1.539       .  S
C981        C985   1.539       .  S
C982       C1353   1.539       .  S
C982        H989   1.087       .  S
C982        C983   1.359       .  D
C983       C1356   1.527       .  S
C984        C988   1.527       .  S
C984        H990   1.103       .  S
C985        H991   1.084       .  S
C986       C1356   1.547       .  S
C986       C1357   1.376       .  D
C986       C1346   1.500       .  S
C987        H992   1.086       .  S
C987        C988   1.358       .  D
C993        C994   1.539       .  S
C993        C999   1.540       .  S
C993        C997   1.540       .  S
C993       C1029   1.508       .  S
C994       H1001   1.086       .  S
C994        C995   1.359       .  D
C995        C996   1.529       .  S
C995       C1057   1.469       .  S
C996       C1000   1.525       .  S
C996        C998   1.547       .  S
C996       H1002   1.103       .  S
C997       H1003   1.084       .  S
C997        C998   1.377       .  D
C998       C1010   1.500       .  S
C999       H1004   1.087       .  S
C999       C1000   1.359       .  D
C1000      C1062   1.468       .  S
C1005      C1006   1.537       .  S
C1005      C1011   1.542       .  S
C1005      C1009   1.540       .  S
C1005      C1027   1.507       .  S
C1006      H1013   1.087       .  S
C1006      C1007   1.356       .  D
C1007      C1008   1.528       .  S
C1007      C1069   1.466       .  S
C1008      C1012   1.525       .  S
C1008      C1010   1.547       .  S
C1008      H1014   1.103       .  S
C1009      H1015   1.084       .  S
C1009      C1010   1.377       .  D
C1011      H1016   1.086       .  S
C1011      C1012   1.362       .  D
C1012      C1074   1.468       .  S
O1017      V1025   1.900       .  S
O1017      C1027   1.265       .  A
O1018      C1028   1.264       .  A
O1019      C1029   1.264       .  A
O1020      V1025   1.893       .  S
O1020      C1030   1.264       .  A
O1021      V1026   1.904       .  S
O1021      C1030   1.266       .  A
O1022      C1029   1.266       .  A
O1023      C1028   1.266       .  A
O1024      V1026   1.899       .  S
O1024      C1027   1.264       .  A
V1025      V1026   2.086       .  T
C1028      C1031   1.506       .  S
C1030      C1043   1.506       .  S
C1031      C1032   1.541       .  S
C1031      C1037   1.539       .  S
C1031      C1035   1.539       .  S
C1032      H1039   1.087       .  S
C1032      C1033   1.360       .  D
C1033      C1034   1.525       .  S
C1033      C1095   1.469       .  S
C1034      C1038   1.529       .  S
C1034      C1036   1.548       .  S
C1034      H1040   1.103       .  S
C1035      H1041   1.084       .  S
C1035      C1036   1.376       .  D
C1036      C1048   1.499       .  S
C1037      H1042   1.086       .  S
C1037      C1038   1.359       .  D
C1038      C1100   1.468       .  S
C1043      C1044   1.540       .  S
C1043      C1049   1.539       .  S
C1043      C1047   1.540       .  S
C1044      H1051   1.086       .  S
C1044      C1045   1.361       .  D
C1045      C1046   1.526       .  S
C1045      C1107   1.466       .  S
C1046      C1050   1.527       .  S
C1046      C1048   1.547       .  S
C1046      H1052   1.103       .  S
C1047      H1053   1.084       .  S
C1047      C1048   1.377       .  D
C1049      H1054   1.087       .  S
C1049      C1050   1.357       .  D
C1050      C1112   1.468       .  S
C1055      C1061   1.539       .  S
C1055      C1059   1.539       .  S
C1055      C1092   1.506       .  S
C1056      C1427   1.541       .  S
C1056      H1063   1.087       .  S
C1056      C1057   1.360       .  D
C1057      C1430   1.525       .  S
C1058      C1062   1.529       .  S
C1058      H1064   1.103       .  S
C1059      H1065   1.084       .  S
C1060      C1430   1.548       .  S
C1060      C1431   1.376       .  D
C1060      C1444   1.499       .  S
C1061      H1066   1.086       .  S
C1061      C1062   1.359       .  D
C1067      C1440   1.540       .  S
C1067      C1073   1.539       .  S
C1067      C1071   1.540       .  S
C1067      C1090   1.506       .  S
C1068      H1075   1.086       .  S
C1068      C1069   1.361       .  D
C1070      C1441   1.526       .  S
C1070      C1074   1.527       .  S
C1070      C1444   1.547       .  S
C1070      H1076   1.103       .  S
C1071      H1077   1.084       .  S
C1071      C1444   1.377       .  D
C1073      H1078   1.087       .  S
C1073      C1074   1.357       .  D
O1080      V2575   1.904       .  S
O1081      V1087   1.899       .  S
O1081      C1091   1.264       .  A
O1082      V2327   1.902   1_556  S
O1082      C1092   1.266       .  A
O1083      V2328   1.896   1_556  S
O1083      C1464   1.264       .  A
O1084      V1088   1.899       .  S
O1084      C1463   1.265       .  A
O1085      V2576   1.893       .  S
O1085      C1090   1.264       .  A
O1086      C1089   1.264       .  A
V1087      O2568   1.904   1_455  S
V1087      O2446   1.895   1_455  S
V1088      O2447   1.903   1_455  S
V1088      O2573   1.893   1_455  S
V1088      V1459   2.086       .  T
C1089      C1093   1.508       .  S
C1089      O1451   1.266       .  A
C1090      O1452   1.266       .  A
C1091      C1105   1.506       .  S
C1093      C1466   1.539       .  S
C1093      C1099   1.540       .  S
C1093      C1097   1.540       .  S
C1094      H1101   1.086       .  S
C1094      C1095   1.359       .  D
C1096      C1467   1.529       .  S
C1096      C1100   1.525       .  S
C1096      C1470   1.547       .  S
C1096      H1102   1.103       .  S
C1097      H1103   1.084       .  S
C1097      C1470   1.377       .  D
C1099      H1104   1.087       .  S
C1099      C1100   1.359       .  D
C1105      C1111   1.542       .  S
C1105      C1109   1.540       .  S
C1106      C1477   1.537       .  S
C1106      H1113   1.087       .  S
C1106      C1107   1.356       .  D
C1107      C1480   1.528       .  S
C1108      C1112   1.525       .  S
C1108      H1114   1.103       .  S
C1109      H1115   1.084       .  S
C1110      C1480   1.547       .  S
C1110      C1481   1.377       .  D
C1110      C1470   1.500       .  S
C1111      H1116   1.086       .  S
C1111      C1112   1.362       .  D
C1117      C1118   1.539       .  S
C1117      C1123   1.539       .  S
C1117      C1121   1.539       .  S
C1117      C1153   1.505       .  S
C1118      H1125   1.086       .  S
C1118      C1119   1.358       .  D
C1119      C1120   1.526       .  S
C1119      C1181   1.467       .  S
C1120      C1124   1.527       .  S
C1120      C1122   1.547       .  S
C1120      H1126   1.103       .  S
C1121      H1127   1.084       .  S
C1121      C1122   1.376       .  D
C1122      C1134   1.500       .  S
C1123      H1128   1.086       .  S
C1123      C1124   1.359       .  D
C1124      C1186   1.466       .  S
C1129      C1130   1.540       .  S
C1129      C1135   1.539       .  S
C1129      C1133   1.540       .  S
C1129      C1151   1.507       .  S
C1130      H1137   1.086       .  S
C1130      C1131   1.360       .  D
C1131      C1132   1.527       .  S
C1131      C1193   1.467       .  S
C1132      C1136   1.526       .  S
C1132      C1134   1.547       .  S
C1132      H1138   1.103       .  S
C1133      H1139   1.084       .  S
C1133      C1134   1.377       .  D
C1135      H1140   1.087       .  S
C1135      C1136   1.358       .  D
C1136      C1198   1.468       .  S
O1141      V1149   1.901       .  S
O1141      C1151   1.265       .  A
O1142      V1273   1.900       .  S
O1142      C1152   1.265       .  A
O1143      V1273   1.898       .  S
O1143      C1153   1.265       .  A
O1144      V1149   1.902       .  S
O1144      C1154   1.265       .  A
O1145      V1150   1.896       .  S
O1145      C1154   1.264       .  A
O1146      V1274   1.897       .  S
O1146      C1153   1.264       .  A
O1147      V1274   1.898       .  S
O1147      C1152   1.265       .  A
O1148      V1150   1.897       .  S
O1148      C1151   1.264       .  A
V1149      O1390   1.896   1_554  S
V1149      O1391   1.898   1_554  S
V1149      V1150   2.087       .  T
V1150      O1394   1.902   1_554  S
V1150      O1395   1.902   1_554  S
C1152      C1155   1.506       .  S
C1154      C1167   1.507       .  S
C1155      C1156   1.539       .  S
C1155      C1161   1.539       .  S
C1155      C1159   1.540       .  S
C1156      H1163   1.086       .  S
C1156      C1157   1.359       .  D
C1157      C1158   1.527       .  S
C1157      C1219   1.467       .  S
C1158      C1162   1.526       .  S
C1158      C1160   1.547       .  S
C1158      H1164   1.103       .  S
C1159      H1165   1.084       .  S
C1159      C1160   1.377       .  D
C1160      C1172   1.500       .  S
C1161      H1166   1.086       .  S
C1161      C1162   1.358       .  D
C1162      C1224   1.466       .  S
C1167      C1168   1.539       .  S
C1167      C1173   1.540       .  S
C1167      C1171   1.540       .  S
C1168      H1175   1.087       .  S
C1168      C1169   1.358       .  D
C1169      C1170   1.526       .  S
C1169      C1231   1.467       .  S
C1170      C1174   1.528       .  S
C1170      C1172   1.547       .  S
C1170      H1176   1.103       .  S
C1171      H1177   1.084       .  S
C1171      C1172   1.376       .  D
C1173      H1178   1.086       .  S
C1173      C1174   1.360       .  D
C1174      C1236   1.468       .  S
C1179      C1185   1.539       .  S
C1179      C1183   1.540       .  S
C1179      C1216   1.506       .  S
C1180      H1187   1.086       .  S
C1180      C1181   1.359       .  D
C1182      C1186   1.526       .  S
C1182      H1188   1.103       .  S
C1183      H1189   1.084       .  S
C1185      H1190   1.086       .  S
C1185      C1186   1.358       .  D
C1191      C1197   1.540       .  S
C1191      C1195   1.540       .  S
C1191      C1214   1.507       .  S
C1192      H1199   1.087       .  S
C1192      C1193   1.358       .  D
C1194      C1198   1.528       .  S
C1194      H1200   1.103       .  S
C1195      H1201   1.084       .  S
C1197      H1202   1.086       .  S
C1197      C1198   1.360       .  D
O1203      V1335   1.897       .  S
O1204      V2699   1.896       .  S
O1205      V1211   1.897       .  S
O1205      C1215   1.264       .  A
O1206      V2823   1.897       .  S
O1206      C1216   1.265       .  A
O1207      V2824   1.900       .  S
O1208      V1212   1.901       .  S
O1209      V2700   1.902       .  S
O1209      C1214   1.265       .  A
O1210      V1336   1.898       .  S
O1210      C1213   1.265       .  A
V1211      O1451   1.902   1_554  S
V1211      O2692   1.896   1_455  S
V1211      O2942   1.902   1_454  S
V1212      O2943   1.896   1_454  S
V1212      O2697   1.902   1_455  S
V1212      O1458   1.898   1_554  S
C1213      C1217   1.505       .  S
C1215      C1229   1.507       .  S
C1217      C1223   1.539       .  S
C1217      C1221   1.539       .  S
C1218      H1225   1.086       .  S
C1218      C1219   1.358       .  D
C1220      C1224   1.527       .  S
C1220      H1226   1.103       .  S
C1221      H1227   1.084       .  S
C1223      H1228   1.086       .  S
C1223      C1224   1.359       .  D
C1229      C1235   1.539       .  S
C1229      C1233   1.540       .  S
C1230      H1237   1.086       .  S
C1230      C1231   1.360       .  D
C1232      C1236   1.526       .  S
C1232      H1238   1.103       .  S
C1233      H1239   1.084       .  S
C1235      H1240   1.087       .  S
C1235      C1236   1.358       .  D
C1241      C1242   1.538       .  S
C1241      C1247   1.540       .  S
C1241      C1245   1.540       .  S
C1241      C1277   1.506       .  S
C1242      H1249   1.087       .  S
C1242      C1243   1.359       .  D
C1243      C1244   1.526       .  S
C1243      C1305   1.467       .  S
C1244      C1248   1.527       .  S
C1244      C1246   1.547       .  S
C1244      H1250   1.103       .  S
C1245      H1251   1.084       .  S
C1245      C1246   1.377       .  D
C1246      C1258   1.500       .  S
C1247      H1252   1.086       .  S
C1247      C1248   1.359       .  D
C1248      C1310   1.467       .  S
C1253      C1254   1.539       .  S
C1253      C1259   1.539       .  S
C1253      C1257   1.540       .  S
C1253      C1275   1.505       .  S
C1254      H1261   1.087       .  S
C1254      C1255   1.359       .  D
C1255      C1256   1.527       .  S
C1255      C1317   1.466       .  S
C1256      C1260   1.527       .  S
C1256      C1258   1.547       .  S
C1256      H1262   1.103       .  S
C1257      H1263   1.084       .  S
C1257      C1258   1.376       .  D
C1259      H1264   1.086       .  S
C1259      C1260   1.358       .  D
C1260      C1322   1.466       .  S
O1265      V1273   1.899       .  S
O1265      C1275   1.265       .  A
O1266      V1397   1.903       .  S
O1266      C1276   1.266       .  A
O1267      V1397   1.897       .  S
O1267      C1277   1.264       .  A
O1268      V1273   1.898       .  S
O1268      C1278   1.265       .  A
O1269      V1274   1.897       .  S
O1269      C1278   1.264       .  A
O1270      V1398   1.900       .  S
O1270      C1277   1.265       .  A
O1271      V1398   1.895       .  S
O1271      C1276   1.264       .  A
O1272      V1274   1.897       .  S
O1272      C1275   1.264       .  A
V1273      V1274   2.087       .  T
C1276      C1279   1.507       .  S
C1278      C1291   1.505       .  S
C1279      C1280   1.539       .  S
C1279      C1285   1.540       .  S
C1279      C1283   1.540       .  S
C1280      H1287   1.086       .  S
C1280      C1281   1.359       .  D
C1281      C1282   1.528       .  S
C1281      C1343   1.467       .  S
C1282      C1286   1.526       .  S
C1282      C1284   1.547       .  S
C1282      H1288   1.103       .  S
C1283      H1289   1.084       .  S
C1283      C1284   1.377       .  D
C1284      C1296   1.500       .  S
C1285      H1290   1.087       .  S
C1285      C1286   1.359       .  D
C1286      C1348   1.467       .  S
C1291      C1292   1.539       .  S
C1291      C1297   1.539       .  S
C1291      C1295   1.540       .  S
C1292      H1299   1.086       .  S
C1292      C1293   1.358       .  D
C1293      C1294   1.527       .  S
C1293      C1355   1.466       .  S
C1294      C1298   1.526       .  S
C1294      C1296   1.547       .  S
C1294      H1300   1.103       .  S
C1295      H1301   1.084       .  S
C1295      C1296   1.377       .  D
C1297      H1302   1.087       .  S
C1297      C1298   1.359       .  D
C1298      C1360   1.466       .  S
C1303      C1309   1.540       .  S
C1303      C1307   1.540       .  S
C1303      C1340   1.506       .  S
C1304      H1311   1.086       .  S
C1304      C1305   1.359       .  D
C1306      C1310   1.526       .  S
C1306      H1312   1.103       .  S
C1307      H1313   1.084       .  S
C1309      H1314   1.087       .  S
C1309      C1310   1.359       .  D
C1315      C1321   1.539       .  S
C1315      C1319   1.540       .  S
C1315      C1338   1.505       .  S
C1316      H1323   1.086       .  S
C1316      C1317   1.358       .  D
C1318      C1322   1.526       .  S
C1318      H1324   1.103       .  S
C1319      H1325   1.084       .  S
C1321      H1326   1.087       .  S
C1321      C1322   1.359       .  D
O1327      V1459   1.900       .  S
O1328      V2823   1.897       .  S
O1329      V1335   1.897       .  S
O1329      C1339   1.264       .  A
O1330      V2947   1.895       .  S
O1330      C1340   1.264       .  A
O1331      V2948   1.903       .  S
O1332      V1336   1.899       .  S
O1333      V2824   1.898       .  S
O1333      C1338   1.265       .  A
O1334      V1460   1.897       .  S
O1334      C1337   1.264       .  A
V1335      O2816   1.897   1_455  S
V1335      O2694   1.897   1_455  S
V1336      O2695   1.900   1_455  S
V1336      O2821   1.898   1_455  S
C1337      C1341   1.506       .  S
C1339      C1353   1.505       .  S
C1341      C1347   1.540       .  S
C1341      C1345   1.540       .  S
C1342      H1349   1.087       .  S
C1342      C1343   1.359       .  D
C1344      C1348   1.527       .  S
C1344      H1350   1.103       .  S
C1345      H1351   1.084       .  S
C1347      H1352   1.086       .  S
C1347      C1348   1.359       .  D
C1353      C1359   1.539       .  S
C1353      C1357   1.539       .  S
C1354      H1361   1.087       .  S
C1354      C1355   1.359       .  D
C1356      C1360   1.527       .  S
C1356      H1362   1.103       .  S
C1357      H1363   1.084       .  S
C1359      H1364   1.086       .  S
C1359      C1360   1.358       .  D
C1365      C1366   1.539       .  S
C1365      C1371   1.540       .  S
C1365      C1369   1.540       .  S
C1365      C1401   1.508       .  S
C1366      H1373   1.086       .  S
C1366      C1367   1.359       .  D
C1367      C1368   1.529       .  S
C1367      C1429   1.469       .  S
C1368      C1372   1.525       .  S
C1368      C1370   1.547       .  S
C1368      H1374   1.103       .  S
C1369      H1375   1.084       .  S
C1369      C1370   1.377       .  D
C1370      C1382   1.500       .  S
C1371      H1376   1.087       .  S
C1371      C1372   1.359       .  D
C1372      C1434   1.468       .  S
C1377      C1378   1.537       .  S
C1377      C1383   1.542       .  S
C1377      C1381   1.540       .  S
C1377      C1399   1.507       .  S
C1378      H1385   1.087       .  S
C1378      C1379   1.356       .  D
C1379      C1380   1.528       .  S
C1379      C1441   1.466       .  S
C1380      C1384   1.525       .  S
C1380      C1382   1.547       .  S
C1380      H1386   1.103       .  S
C1381      H1387   1.084       .  S
C1381      C1382   1.377       .  D
C1383      H1388   1.086       .  S
C1383      C1384   1.362       .  D
C1384      C1446   1.468       .  S
O1389      V1397   1.900       .  S
O1389      C1399   1.265       .  A
O1390      C1400   1.264       .  A
O1391      C1401   1.264       .  A
O1392      V1397   1.893       .  S
O1392      C1402   1.264       .  A
O1393      V1398   1.904       .  S
O1393      C1402   1.266       .  A
O1394      C1401   1.266       .  A
O1395      C1400   1.266       .  A
O1396      V1398   1.899       .  S
O1396      C1399   1.264       .  A
V1397      V1398   2.086       .  T
C1400      C1403   1.506       .  S
C1402      C1415   1.506       .  S
C1403      C1404   1.541       .  S
C1403      C1409   1.539       .  S
C1403      C1407   1.539       .  S
C1404      H1411   1.087       .  S
C1404      C1405   1.360       .  D
C1405      C1406   1.525       .  S
C1405      C1467   1.469       .  S
C1406      C1410   1.529       .  S
C1406      C1408   1.548       .  S
C1406      H1412   1.103       .  S
C1407      H1413   1.084       .  S
C1407      C1408   1.376       .  D
C1408      C1420   1.499       .  S
C1409      H1414   1.086       .  S
C1409      C1410   1.359       .  D
C1410      C1472   1.468       .  S
C1415      C1416   1.540       .  S
C1415      C1421   1.539       .  S
C1415      C1419   1.540       .  S
C1416      H1423   1.086       .  S
C1416      C1417   1.361       .  D
C1417      C1418   1.526       .  S
C1417      C1479   1.466       .  S
C1418      C1422   1.527       .  S
C1418      C1420   1.547       .  S
C1418      H1424   1.103       .  S
C1419      H1425   1.084       .  S
C1419      C1420   1.377       .  D
C1421      H1426   1.087       .  S
C1421      C1422   1.357       .  D
C1422      C1484   1.468       .  S
C1427      C1433   1.539       .  S
C1427      C1431   1.539       .  S
C1427      C1464   1.506       .  S
C1428      H1435   1.087       .  S
C1428      C1429   1.360       .  D
C1430      C1434   1.529       .  S
C1430      H1436   1.103       .  S
C1431      H1437   1.084       .  S
C1433      H1438   1.086       .  S
C1433      C1434   1.359       .  D
C1439      C1445   1.539   1_545  S
C1439      C1443   1.540       .  S
C1439      C1462   1.506       .  S
C1440      H1447   1.086       .  S
C1440      C1441   1.361       .  D
C1442      C1446   1.527   1_545  S
C1442      H1448   1.103       .  S
C1443      H1449   1.084       .  S
C1445      H1450   1.087       .  S
C1445      C1446   1.357       .  D
O1452      V2947   1.904       .  S
O1453      V1459   1.899       .  S
O1453      C1463   1.264       .  A
O1454      V2699   1.902   1_556  S
O1454      C1464   1.266       .  A
O1455      V2700   1.896   1_556  S
O1456      V1460   1.899       .  S
O1457      V2948   1.893       .  S
O1457      C1462   1.264   1_565  A
O1458      C1461   1.264   1_565  A
V1459      O2940   1.904   1_455  S
V1459      O2818   1.895   1_455  S
V1460      O2819   1.903   1_455  S
V1460      O2945   1.893   1_455  S
C1461      C1465   1.508       .  S
C1463      C1477   1.506       .  S
C1465      C1471   1.540   1_545  S
C1465      C1469   1.540       .  S
C1466      H1473   1.086       .  S
C1466      C1467   1.359       .  D
C1468      C1472   1.525   1_545  S
C1468      H1474   1.103       .  S
C1469      H1475   1.084       .  S
C1471      H1476   1.087       .  S
C1471      C1472   1.359       .  D
C1477      C1483   1.542       .  S
C1477      C1481   1.540       .  S
C1478      H1485   1.087       .  S
C1478      C1479   1.356       .  D
C1480      C1484   1.525       .  S
C1480      H1486   1.103       .  S
C1481      H1487   1.084       .  S
C1483      H1488   1.086       .  S
C1483      C1484   1.362       .  D
C1489      C1490   1.539       .  S
C1489      C1495   1.539       .  S
C1489      C1493   1.539       .  S
C1489      C1525   1.505       .  S
C1490      H1497   1.087       .  S
C1490      C1491   1.358       .  D
C1491      C1492   1.526       .  S
C1491      C1553   1.467       .  S
C1492      C1496   1.527       .  S
C1492      C1494   1.547       .  S
C1492      H1498   1.103       .  S
C1493      H1499   1.084       .  S
C1493      C1494   1.376       .  D
C1494      C1506   1.500       .  S
C1495      H1500   1.086       .  S
C1495      C1496   1.359       .  D
C1496      C1558   1.466       .  S
C1501      C1502   1.540       .  S
C1501      C1507   1.539       .  S
C1501      C1505   1.540       .  S
C1501      C1523   1.507       .  S
C1502      H1509   1.086       .  S
C1502      C1503   1.360       .  D
C1503      C1504   1.527       .  S
C1503      C1565   1.467       .  S
C1504      C1508   1.526       .  S
C1504      C1506   1.547       .  S
C1504      H1510   1.103       .  S
C1505      H1511   1.084       .  S
C1505      C1506   1.377       .  D
C1507      H1512   1.087       .  S
C1507      C1508   1.358       .  D
C1508      C1570   1.468       .  S
O1513      V1521   1.901       .  S
O1513      C1523   1.265       .  A
O1514      V1645   1.900       .  S
O1514      C1524   1.265       .  A
O1515      V1645   1.898       .  S
O1515      C1525   1.265       .  A
O1516      V1521   1.902       .  S
O1516      C1526   1.265       .  A
O1517      V1522   1.896       .  S
O1517      C1526   1.264       .  A
O1518      V1646   1.897       .  S
O1518      C1525   1.264       .  A
O1519      V1646   1.898       .  S
O1519      C1524   1.265       .  A
O1520      V1522   1.897       .  S
O1520      C1523   1.264       .  A
V1521      O1762   1.896   1_554  S
V1521      O1763   1.898   1_554  S
V1521      V1522   2.087       .  T
V1522      O1766   1.902   1_554  S
V1522      O1767   1.902   1_554  S
C1524      C1527   1.506       .  S
C1526      C1539   1.507       .  S
C1527      C1528   1.539       .  S
C1527      C1533   1.539       .  S
C1527      C1531   1.540       .  S
C1528      H1535   1.086       .  S
C1528      C1529   1.359       .  D
C1529      C1530   1.527       .  S
C1529      C1591   1.467       .  S
C1530      C1534   1.526       .  S
C1530      C1532   1.547       .  S
C1530      H1536   1.103       .  S
C1531      H1537   1.084       .  S
C1531      C1532   1.377       .  D
C1532      C1544   1.500       .  S
C1533      H1538   1.087       .  S
C1533      C1534   1.358       .  D
C1534      C1596   1.466       .  S
C1539      C1540   1.539       .  S
C1539      C1545   1.540       .  S
C1539      C1543   1.540       .  S
C1540      H1547   1.087       .  S
C1540      C1541   1.358       .  D
C1541      C1542   1.526       .  S
C1541      C1603   1.467       .  S
C1542      C1546   1.528       .  S
C1542      C1544   1.547       .  S
C1542      H1548   1.103       .  S
C1543      H1549   1.084       .  S
C1543      C1544   1.376       .  D
C1545      H1550   1.086       .  S
C1545      C1546   1.360       .  D
C1546      C1608   1.468       .  S
C1551      C2668   1.539       .  S
C1551      C1557   1.539   1_565  S
C1551      C1555   1.540       .  S
C1551      C1588   1.506       .  S
C1552      C1923   1.539       .  S
C1552      H1559   1.086       .  S
C1552      C1553   1.359       .  D
C1553      C1926   1.527       .  S
C1554      C2669   1.527       .  S
C1554      C1558   1.526   1_565  S
C1554      C2672   1.547       .  S
C1554      H1560   1.103       .  S
C1555      H1561   1.084       .  S
C1555      C2672   1.377       .  D
C1556      C1926   1.547       .  S
C1556      C1927   1.377       .  D
C1556      C1940   1.500       .  S
C1557      H1562   1.086       .  S
C1557      C1558   1.358       .  D
C1563      C1936   1.539       .  S
C1563      C1569   1.540       .  S
C1563      C1567   1.540       .  S
C1563      C1586   1.507       .  S
C1564      C2679   1.539   1_545  S
C1564      H1571   1.087       .  S
C1564      C1565   1.358       .  D
C1565      C2682   1.526   1_545  S
C1566      C1937   1.526       .  S
C1566      C1570   1.528       .  S
C1566      C1940   1.547       .  S
C1566      H1572   1.103       .  S
C1567      H1573   1.084       .  S
C1567      C1940   1.376       .  D
C1568      C2682   1.547       .  S
C1568      C2683   1.376       .  D
C1568      C2672   1.500       .  S
C1569      H1574   1.086       .  S
C1569      C1570   1.360       .  D
O1575      V1707   1.897       .  S
O1575      C2701   1.264   1_545  A
O1576      C2702   1.264   1_545  A
O1577      V1583   1.897       .  S
O1577      C1587   1.264   1_545  A
O1578      C1588   1.265   1_545  A
O1579      C1960   1.265       .  A
O1580      V1584   1.901       .  S
O1580      C1959   1.265       .  A
O1581      C1586   1.265       .  A
O1582      V1708   1.898       .  S
O1582      C1585   1.265       .  A
V1583      O1823   1.902   1_554  S
V1583      V2700   2.087   1_545  T
V1584      O1830   1.898   1_554  S
V1584      V1955   2.087       .  T
C1585      C1589   1.505       .  S
C1585      O1947   1.264       .  A
C1586      O1948   1.264       .  A
C1587      C1601   1.507       .  S
C1587      O2696   1.265       .  A
C1588      O2695   1.265       .  A
C1589      C1962   1.539       .  S
C1589      C1595   1.539       .  S
C1589      C1593   1.539       .  S
C1590      C2705   1.539   1_545  S
C1590      H1597   1.086       .  S
C1590      C1591   1.358       .  D
C1591      C2708   1.526   1_545  S
C1592      C1963   1.526       .  S
C1592      C1596   1.527       .  S
C1592      C1966   1.547       .  S
C1592      H1598   1.103       .  S
C1593      H1599   1.084       .  S
C1593      C1966   1.376       .  D
C1594      C2708   1.547       .  S
C1594      C2709   1.376       .  D
C1594      C2722   1.500       .  S
C1595      H1600   1.086       .  S
C1595      C1596   1.359       .  D
C1601      C2718   1.540       .  S
C1601      C1607   1.539   1_565  S
C1601      C1605   1.540       .  S
C1602      C1973   1.540       .  S
C1602      H1609   1.086       .  S
C1602      C1603   1.360       .  D
C1603      C1976   1.527       .  S
C1604      C2719   1.527       .  S
C1604      C1608   1.526   1_565  S
C1604      C2722   1.547       .  S
C1604      H1610   1.103       .  S
C1605      H1611   1.084       .  S
C1605      C2722   1.377       .  D
C1606      C1976   1.547       .  S
C1606      C1977   1.377       .  D
C1606      C1966   1.500       .  S
C1607      H1612   1.087       .  S
C1607      C1608   1.358       .  D
C1613      C1614   1.538       .  S
C1613      C1619   1.540       .  S
C1613      C1617   1.540       .  S
C1613      C1649   1.506       .  S
C1614      H1621   1.087       .  S
C1614      C1615   1.359       .  D
C1615      C1616   1.526       .  S
C1615      C1677   1.467       .  S
C1616      C1620   1.527       .  S
C1616      C1618   1.547       .  S
C1616      H1622   1.103       .  S
C1617      H1623   1.084       .  S
C1617      C1618   1.377       .  D
C1618      C1630   1.500       .  S
C1619      H1624   1.086       .  S
C1619      C1620   1.359       .  D
C1620      C1682   1.467       .  S
C1625      C1626   1.539       .  S
C1625      C1631   1.539       .  S
C1625      C1629   1.540       .  S
C1625      C1647   1.505       .  S
C1626      H1633   1.087       .  S
C1626      C1627   1.359       .  D
C1627      C1628   1.527       .  S
C1627      C1689   1.466       .  S
C1628      C1632   1.527       .  S
C1628      C1630   1.547       .  S
C1628      H1634   1.103       .  S
C1629      H1635   1.084       .  S
C1629      C1630   1.376       .  D
C1631      H1636   1.086       .  S
C1631      C1632   1.358       .  D
C1632      C1694   1.466       .  S
O1637      V1645   1.899       .  S
O1637      C1647   1.265       .  A
O1638      V1769   1.903       .  S
O1638      C1648   1.266       .  A
O1639      V1769   1.897       .  S
O1639      C1649   1.264       .  A
O1640      V1645   1.898       .  S
O1640      C1650   1.265       .  A
O1641      V1646   1.897       .  S
O1641      C1650   1.264       .  A
O1642      V1770   1.900       .  S
O1642      C1649   1.265       .  A
O1643      V1770   1.895       .  S
O1643      C1648   1.264       .  A
O1644      V1646   1.897       .  S
O1644      C1647   1.264       .  A
V1645      V1646   2.087       .  T
C1648      C1651   1.506       .  S
C1650      C1663   1.505       .  S
C1651      C1652   1.539       .  S
C1651      C1657   1.540       .  S
C1651      C1655   1.540       .  S
C1652      H1659   1.086       .  S
C1652      C1653   1.359       .  D
C1653      C1654   1.528       .  S
C1653      C1715   1.467       .  S
C1654      C1658   1.526       .  S
C1654      C1656   1.547       .  S
C1654      H1660   1.103       .  S
C1655      H1661   1.084       .  S
C1655      C1656   1.376       .  D
C1656      C1668   1.500       .  S
C1657      H1662   1.087       .  S
C1657      C1658   1.359       .  D
C1658      C1720   1.467       .  S
C1663      C1664   1.539       .  S
C1663      C1669   1.539       .  S
C1663      C1667   1.540       .  S
C1664      H1671   1.086       .  S
C1664      C1665   1.358       .  D
C1665      C1666   1.527       .  S
C1665      C1727   1.466       .  S
C1666      C1670   1.526       .  S
C1666      C1668   1.547       .  S
C1666      H1672   1.103       .  S
C1667      H1673   1.084       .  S
C1667      C1668   1.377       .  D
C1669      H1674   1.087       .  S
C1669      C1670   1.359       .  D
C1670      C1732   1.466       .  S
C1675      C2792   1.539       .  S
C1675      C1681   1.540   1_565  S
C1675      C1679   1.540       .  S
C1675      C1712   1.506       .  S
C1676      C2047   1.539       .  S
C1676      H1683   1.086       .  S
C1676      C1677   1.359       .  D
C1677      C2050   1.528       .  S
C1678      C2793   1.528       .  S
C1678      C1682   1.526   1_565  S
C1678      C2796   1.547       .  S
C1678      H1684   1.103       .  S
C1679      H1685   1.084       .  S
C1679      C2796   1.376       .  D
C1680      C2050   1.547       .  S
C1680      C2051   1.376       .  D
C1680      C2064   1.500       .  S
C1681      H1686   1.087       .  S
C1681      C1682   1.359       .  D
C1687      C2060   1.539       .  S
C1687      C1693   1.539       .  S
C1687      C1691   1.540       .  S
C1687      C1710   1.505       .  S
C1688      C2803   1.539   1_545  S
C1688      H1695   1.086       .  S
C1688      C1689   1.358       .  D
C1689      C2806   1.527   1_545  S
C1690      C2061   1.527       .  S
C1690      C1694   1.526       .  S
C1690      C2064   1.547       .  S
C1690      H1696   1.103       .  S
C1691      H1697   1.084       .  S
C1691      C2064   1.377       .  D
C1692      C2806   1.547       .  S
C1692      C2807   1.377       .  D
C1692      C2796   1.500       .  S
C1693      H1698   1.087       .  S
C1693      C1694   1.359       .  D
O1699      V1831   1.900       .  S
O1699      C2825   1.265   1_545  A
O1700      C2826   1.264   1_545  A
O1701      V1707   1.897       .  S
O1701      C1711   1.264   1_545  A
O1702      C1712   1.264   1_545  A
O1703      C2084   1.266       .  A
O1704      V1708   1.899       .  S
O1704      C2083   1.265       .  A
O1705      C1710   1.265       .  A
O1706      V1832   1.897       .  S
O1706      C1709   1.264       .  A
V1707      V2824   2.087   1_545  T
V1708      V2079   2.087       .  T
C1709      C1713   1.506       .  S
C1709      O2071   1.265       .  A
C1710      O2072   1.264       .  A
C1711      C1725   1.505       .  S
C1711      O2820   1.265       .  A
C1712      O2819   1.266       .  A
C1713      C2086   1.538       .  S
C1713      C1719   1.540       .  S
C1713      C1717   1.540       .  S
C1714      C2829   1.538   1_545  S
C1714      H1721   1.087       .  S
C1714      C1715   1.359       .  D
C1715      C2832   1.526   1_545  S
C1716      C2087   1.526       .  S
C1716      C1720   1.527       .  S
C1716      C2090   1.547       .  S
C1716      H1722   1.103       .  S
C1717      H1723   1.084       .  S
C1717      C2090   1.377       .  D
C1718      C2832   1.547       .  S
C1718      C2833   1.377       .  D
C1718      C2846   1.500       .  S
C1719      H1724   1.086       .  S
C1719      C1720   1.359       .  D
C1725      C2842   1.539       .  S
C1725      C1731   1.539   1_565  S
C1725      C1729   1.540       .  S
C1726      C2097   1.539       .  S
C1726      H1733   1.087       .  S
C1726      C1727   1.359       .  D
C1727      C2100   1.527       .  S
C1728      C2843   1.527       .  S
C1728      C1732   1.527   1_565  S
C1728      C2846   1.547       .  S
C1728      H1734   1.103       .  S
C1729      H1735   1.084       .  S
C1729      C2846   1.376       .  D
C1730      C2100   1.547       .  S
C1730      C2101   1.376       .  D
C1730      C2090   1.500       .  S
C1731      H1736   1.086       .  S
C1731      C1732   1.358       .  D
C1737      C1738   1.539       .  S
C1737      C1743   1.540       .  S
C1737      C1741   1.540       .  S
C1737      C1773   1.507       .  S
C1738      H1745   1.086       .  S
C1738      C1739   1.359       .  D
C1739      C1740   1.529       .  S
C1739      C1801   1.469       .  S
C1740      C1744   1.525       .  S
C1740      C1742   1.547       .  S
C1740      H1746   1.103       .  S
C1741      H1747   1.084       .  S
C1741      C1742   1.377       .  D
C1742      C1754   1.500       .  S
C1743      H1748   1.087       .  S
C1743      C1744   1.359       .  D
C1744      C1806   1.468       .  S
C1749      C1750   1.537       .  S
C1749      C1755   1.542       .  S
C1749      C1753   1.540       .  S
C1749      C1771   1.506       .  S
C1750      H1757   1.087       .  S
C1750      C1751   1.356       .  D
C1751      C1752   1.528       .  S
C1751      C1813   1.466       .  S
C1752      C1756   1.525       .  S
C1752      C1754   1.547       .  S
C1752      H1758   1.103       .  S
C1753      H1759   1.084       .  S
C1753      C1754   1.377       .  D
C1755      H1760   1.086       .  S
C1755      C1756   1.362       .  D
C1756      C1818   1.468       .  S
O1761      V1769   1.899       .  S
O1761      C1771   1.265       .  A
O1762      C1772   1.264       .  A
O1763      C1773   1.264       .  A
O1764      V1769   1.893       .  S
O1764      C1774   1.264       .  A
O1765      V1770   1.904       .  S
O1765      C1774   1.266       .  A
O1766      C1773   1.266       .  A
O1767      C1772   1.266       .  A
O1768      V1770   1.899       .  S
O1768      C1771   1.264       .  A
V1769      V1770   2.086       .  T
C1772      C1775   1.506       .  S
C1774      C1787   1.506       .  S
C1775      C1776   1.541       .  S
C1775      C1781   1.539       .  S
C1775      C1779   1.539       .  S
C1776      H1783   1.087       .  S
C1776      C1777   1.360       .  D
C1777      C1778   1.525       .  S
C1777      C1839   1.469       .  S
C1778      C1782   1.529       .  S
C1778      C1780   1.548       .  S
C1778      H1784   1.103       .  S
C1779      H1785   1.084       .  S
C1779      C1780   1.376       .  D
C1780      C1792   1.499       .  S
C1781      H1786   1.086       .  S
C1781      C1782   1.359       .  D
C1782      C1844   1.468       .  S
C1787      C1788   1.540       .  S
C1787      C1793   1.539       .  S
C1787      C1791   1.540       .  S
C1788      H1795   1.086       .  S
C1788      C1789   1.361       .  D
C1789      C1790   1.526       .  S
C1789      C1851   1.466       .  S
C1790      C1794   1.527       .  S
C1790      C1792   1.547       .  S
C1790      H1796   1.103       .  S
C1791      H1797   1.084       .  S
C1791      C1792   1.377       .  D
C1793      H1798   1.087       .  S
C1793      C1794   1.357       .  D
C1794      C1856   1.468       .  S
C1799      C2916   1.541   1_545  S
C1799      C1805   1.539       .  S
C1799      C1803   1.539       .  S
C1799      C1836   1.506       .  S
C1800      C2171   1.541       .  S
C1800      H1807   1.087       .  S
C1800      C1801   1.360       .  D
C1801      C2174   1.525       .  S
C1802      C2917   1.525   1_545  S
C1802      C1806   1.529       .  S
C1802      C2920   1.548       .  S
C1802      H1808   1.103       .  S
C1803      H1809   1.084       .  S
C1803      C2920   1.376       .  D
C1804      C2174   1.548       .  S
C1804      C2175   1.376       .  D
C1804      C2188   1.499       .  S
C1805      H1810   1.086       .  S
C1805      C1806   1.359       .  D
C1811      C2184   1.540       .  S
C1811      C1817   1.539       .  S
C1811      C1815   1.540       .  S
C1811      C1834   1.506       .  S
C1812      C2927   1.540       .  S
C1812      H1819   1.086       .  S
C1812      C1813   1.361       .  D
C1813      C2930   1.526       .  S
C1814      C2185   1.526       .  S
C1814      C1818   1.527       .  S
C1814      C2188   1.547       .  S
C1814      H1820   1.103       .  S
C1815      H1821   1.084       .  S
C1815      C2188   1.377       .  D
C1816      C2930   1.547       .  S
C1816      C2931   1.377       .  D
C1816      C2920   1.499       .  S
C1817      H1822   1.087       .  S
C1817      C1818   1.357       .  D
O1823      C2949   1.266       .  A
O1824      C2950   1.266       .  A
O1825      V1831   1.899       .  S
O1825      C1835   1.264       .  A
O1826      C1836   1.266       .  A
O1827      C2208   1.264       .  A
O1828      V1832   1.899       .  S
O1828      C2207   1.265       .  A
O1829      C1834   1.264       .  A
O1830      C1833   1.264       .  A
V1831      V2948   2.086   1_545  T
V1832      V2203   2.086       .  T
C1833      C1837   1.508       .  S
C1833      O2195   1.266       .  A
C1834      O2196   1.266       .  A
C1835      C1849   1.506       .  S
C1835      O2944   1.265   1_545  A
C1836      O2943   1.264   1_545  A
C1837      C2210   1.539       .  S
C1837      C1843   1.540       .  S
C1837      C1841   1.540       .  S
C1838      C2953   1.539       .  S
C1838      H1845   1.086       .  S
C1838      C1839   1.359       .  D
C1839      C2956   1.529       .  S
C1840      C2211   1.529       .  S
C1840      C1844   1.525       .  S
C1840      C2214   1.547       .  S
C1840      H1846   1.103       .  S
C1841      H1847   1.084       .  S
C1841      C2214   1.377       .  D
C1842      C2956   1.547       .  S
C1842      C2957   1.377       .  D
C1842      C2970   1.500       .  S
C1843      H1848   1.087       .  S
C1843      C1844   1.359       .  D
C1849      C2966   1.537   1_545  S
C1849      C1855   1.542       .  S
C1849      C1853   1.540       .  S
C1850      C2221   1.537       .  S
C1850      H1857   1.087       .  S
C1850      C1851   1.356       .  D
C1851      C2224   1.528       .  S
C1852      C2967   1.528   1_545  S
C1852      C1856   1.525       .  S
C1852      C2970   1.547       .  S
C1852      H1858   1.103       .  S
C1853      H1859   1.084       .  S
C1853      C2970   1.377       .  D
C1854      C2224   1.547       .  S
C1854      C2225   1.377       .  D
C1854      C2214   1.500       .  S
C1855      H1860   1.086       .  S
C1855      C1856   1.362       .  D
C1861      C1862   1.539       .  S
C1861      C1867   1.539       .  S
C1861      C1865   1.539       .  S
C1861      C1897   1.505       .  S
C1862      H1869   1.087       .  S
C1862      C1863   1.358       .  D
C1863      C1864   1.526       .  S
C1863      C1925   1.467       .  S
C1864      C1868   1.527       .  S
C1864      C1866   1.547       .  S
C1864      H1870   1.103       .  S
C1865      H1871   1.084       .  S
C1865      C1866   1.376       .  D
C1866      C1878   1.500       .  S
C1867      H1872   1.086       .  S
C1867      C1868   1.359       .  D
C1868      C1930   1.466       .  S
C1873      C1874   1.540       .  S
C1873      C1879   1.539       .  S
C1873      C1877   1.540       .  S
C1873      C1895   1.507       .  S
C1874      H1881   1.086       .  S
C1874      C1875   1.360       .  D
C1875      C1876   1.527       .  S
C1875      C1937   1.467       .  S
C1876      C1880   1.526       .  S
C1876      C1878   1.547       .  S
C1876      H1882   1.103       .  S
C1877      H1883   1.084       .  S
C1877      C1878   1.377       .  D
C1879      H1884   1.087       .  S
C1879      C1880   1.358       .  D
C1880      C1942   1.468       .  S
O1885      V1893   1.901       .  S
O1885      C1895   1.265       .  A
O1886      V2017   1.900       .  S
O1886      C1896   1.265       .  A
O1887      V2017   1.898       .  S
O1887      C1897   1.265       .  A
O1888      V1893   1.902       .  S
O1888      C1898   1.265       .  A
O1889      V1894   1.896       .  S
O1889      C1898   1.264       .  A
O1890      V2018   1.897       .  S
O1890      C1897   1.264       .  A
O1891      V2018   1.898       .  S
O1891      C1896   1.265       .  A
O1892      V1894   1.897       .  S
O1892      C1895   1.264       .  A
V1893      O2134   1.896   1_554  S
V1893      O2135   1.898   1_554  S
V1893      V1894   2.087       .  T
V1894      O2138   1.902   1_554  S
V1894      O2139   1.902   1_554  S
C1896      C1899   1.506       .  S
C1898      C1911   1.507       .  S
C1899      C1900   1.539       .  S
C1899      C1905   1.539       .  S
C1899      C1903   1.540       .  S
C1900      H1907   1.086       .  S
C1900      C1901   1.359       .  D
C1901      C1902   1.527       .  S
C1901      C1963   1.467       .  S
C1902      C1906   1.526       .  S
C1902      C1904   1.547       .  S
C1902      H1908   1.103       .  S
C1903      H1909   1.084       .  S
C1903      C1904   1.377       .  D
C1904      C1916   1.500       .  S
C1905      H1910   1.086       .  S
C1905      C1906   1.358       .  D
C1906      C1968   1.466       .  S
C1911      C1912   1.539       .  S
C1911      C1917   1.540       .  S
C1911      C1915   1.540       .  S
C1912      H1919   1.087       .  S
C1912      C1913   1.358       .  D
C1913      C1914   1.526       .  S
C1913      C1975   1.467       .  S
C1914      C1918   1.528       .  S
C1914      C1916   1.547       .  S
C1914      H1920   1.103       .  S
C1915      H1921   1.084       .  S
C1915      C1916   1.376       .  D
C1917      H1922   1.086       .  S
C1917      C1918   1.360       .  D
C1918      C1980   1.468       .  S
C1923      C1929   1.539       .  S
C1923      C1927   1.540       .  S
C1923      C1960   1.506       .  S
C1924      C2295   1.539       .  S
C1924      H1931   1.086       .  S
C1924      C1925   1.359       .  D
C1925      C2298   1.527       .  S
C1926      C1930   1.526       .  S
C1926      H1932   1.103       .  S
C1927      H1933   1.084       .  S
C1928      C2298   1.547       .  S
C1928      C2299   1.377       .  D
C1928      C2312   1.500       .  S
C1929      H1934   1.086       .  S
C1929      C1930   1.358       .  D
C1935      C2308   1.539       .  S
C1935      C1941   1.540       .  S
C1935      C1939   1.540       .  S
C1935      C1958   1.507       .  S
C1936      H1943   1.087       .  S
C1936      C1937   1.358       .  D
C1938      C2309   1.526       .  S
C1938      C1942   1.528       .  S
C1938      C2312   1.547       .  S
C1938      H1944   1.103       .  S
C1939      H1945   1.084       .  S
C1939      C2312   1.376       .  D
C1941      H1946   1.086       .  S
C1941      C1942   1.360       .  D
O1947      V2079   1.897       .  S
O1949      V1955   1.897       .  S
O1949      C1959   1.264       .  A
O1950      C1960   1.265       .  A
O1951      C2332   1.265       .  A
O1952      V1956   1.901       .  S
O1952      C2331   1.265       .  A
O1953      C1958   1.265       .  A
O1954      V2080   1.898       .  S
O1954      C1957   1.265       .  A
V1955      O2195   1.902   1_554  S
V1956      O2202   1.898   1_554  S
V1956      V2327   2.087       .  T
C1957      C1961   1.505       .  S
C1957      O2319   1.264       .  A
C1958      O2320   1.264       .  A
C1959      C1973   1.507       .  S
C1961      C2334   1.539       .  S
C1961      C1967   1.539       .  S
C1961      C1965   1.539       .  S
C1962      H1969   1.087       .  S
C1962      C1963   1.358       .  D
C1964      C2335   1.526       .  S
C1964      C1968   1.527       .  S
C1964      C2338   1.547       .  S
C1964      H1970   1.103       .  S
C1965      H1971   1.084       .  S
C1965      C2338   1.376       .  D
C1967      H1972   1.086       .  S
C1967      C1968   1.359       .  D
C1973      C1979   1.539       .  S
C1973      C1977   1.540       .  S
C1974      C2345   1.540       .  S
C1974      H1981   1.086       .  S
C1974      C1975   1.360       .  D
C1975      C2348   1.527       .  S
C1976      C1980   1.526       .  S
C1976      H1982   1.103       .  S
C1977      H1983   1.084       .  S
C1978      C2348   1.547       .  S
C1978      C2349   1.377       .  D
C1978      C2338   1.500       .  S
C1979      H1984   1.087       .  S
C1979      C1980   1.358       .  D
C1985      C1986   1.538       .  S
C1985      C1991   1.540       .  S
C1985      C1989   1.540       .  S
C1985      C2021   1.506       .  S
C1986      H1993   1.087       .  S
C1986      C1987   1.359       .  D
C1987      C1988   1.526       .  S
C1987      C2049   1.467       .  S
C1988      C1992   1.527       .  S
C1988      C1990   1.547       .  S
C1988      H1994   1.103       .  S
C1989      H1995   1.084       .  S
C1989      C1990   1.377       .  D
C1990      C2002   1.500       .  S
C1991      H1996   1.086       .  S
C1991      C1992   1.359       .  D
C1992      C2054   1.467       .  S
C1997      C1998   1.539       .  S
C1997      C2003   1.539       .  S
C1997      C2001   1.540       .  S
C1997      C2019   1.505       .  S
C1998      H2005   1.087       .  S
C1998      C1999   1.359       .  D
C1999      C2000   1.527       .  S
C1999      C2061   1.466       .  S
C2000      C2004   1.527       .  S
C2000      C2002   1.547       .  S
C2000      H2006   1.103       .  S
C2001      H2007   1.084       .  S
C2001      C2002   1.376       .  D
C2003      H2008   1.086       .  S
C2003      C2004   1.358       .  D
C2004      C2066   1.466       .  S
O2009      V2017   1.899       .  S
O2009      C2019   1.265       .  A
O2010      V2141   1.903       .  S
O2010      C2020   1.266       .  A
O2011      V2141   1.897       .  S
O2011      C2021   1.264       .  A
O2012      V2017   1.898       .  S
O2012      C2022   1.265       .  A
O2013      V2018   1.897       .  S
O2013      C2022   1.264       .  A
O2014      V2142   1.900       .  S
O2014      C2021   1.265       .  A
O2015      V2142   1.895       .  S
O2015      C2020   1.264       .  A
O2016      V2018   1.897       .  S
O2016      C2019   1.264       .  A
V2017      V2018   2.087       .  T
C2020      C2023   1.506       .  S
C2022      C2035   1.505       .  S
C2023      C2024   1.539       .  S
C2023      C2029   1.540       .  S
C2023      C2027   1.540       .  S
C2024      H2031   1.086       .  S
C2024      C2025   1.359       .  D
C2025      C2026   1.528       .  S
C2025      C2087   1.467       .  S
C2026      C2030   1.526       .  S
C2026      C2028   1.547       .  S
C2026      H2032   1.103       .  S
C2027      H2033   1.084       .  S
C2027      C2028   1.376       .  D
C2028      C2040   1.500       .  S
C2029      H2034   1.087       .  S
C2029      C2030   1.359       .  D
C2030      C2092   1.467       .  S
C2035      C2036   1.539       .  S
C2035      C2041   1.539       .  S
C2035      C2039   1.540       .  S
C2036      H2043   1.086       .  S
C2036      C2037   1.358       .  D
C2037      C2038   1.527       .  S
C2037      C2099   1.466       .  S
C2038      C2042   1.526       .  S
C2038      C2040   1.547       .  S
C2038      H2044   1.103       .  S
C2039      H2045   1.084       .  S
C2039      C2040   1.377       .  D
C2041      H2046   1.087       .  S
C2041      C2042   1.359       .  D
C2042      C2104   1.466       .  S
C2047      C2053   1.540       .  S
C2047      C2051   1.540       .  S
C2047      C2084   1.506       .  S
C2048      C2419   1.539       .  S
C2048      H2055   1.086       .  S
C2048      C2049   1.359       .  D
C2049      C2422   1.528       .  S
C2050      C2054   1.526       .  S
C2050      H2056   1.103       .  S
C2051      H2057   1.084       .  S
C2052      C2422   1.547       .  S
C2052      C2423   1.376       .  D
C2052      C2436   1.500       .  S
C2053      H2058   1.087       .  S
C2053      C2054   1.359       .  D
C2059      C2432   1.539       .  S
C2059      C2065   1.539       .  S
C2059      C2063   1.540       .  S
C2059      C2082   1.505       .  S
C2060      H2067   1.086       .  S
C2060      C2061   1.358       .  D
C2062      C2433   1.527       .  S
C2062      C2066   1.526       .  S
C2062      C2436   1.547       .  S
C2062      H2068   1.103       .  S
C2063      H2069   1.084       .  S
C2063      C2436   1.377       .  D
C2065      H2070   1.087       .  S
C2065      C2066   1.359       .  D
O2071      V2203   1.900       .  S
O2073      V2079   1.897       .  S
O2073      C2083   1.264       .  A
O2074      C2084   1.264       .  A
O2075      C2456   1.266       .  A
O2076      V2080   1.899       .  S
O2076      C2455   1.265       .  A
O2077      C2082   1.265       .  A
O2078      V2204   1.897       .  S
O2078      C2081   1.264       .  A
V2080      V2451   2.087       .  T
C2081      C2085   1.506       .  S
C2081      O2443   1.265       .  A
C2082      O2444   1.264       .  A
C2083      C2097   1.505       .  S
C2085      C2458   1.538       .  S
C2085      C2091   1.540       .  S
C2085      C2089   1.540       .  S
C2086      H2093   1.087       .  S
C2086      C2087   1.359       .  D
C2088      C2459   1.526       .  S
C2088      C2092   1.527       .  S
C2088      C2462   1.547       .  S
C2088      H2094   1.103       .  S
C2089      H2095   1.084       .  S
C2089      C2462   1.377       .  D
C2091      H2096   1.086       .  S
C2091      C2092   1.359       .  D
C2097      C2103   1.539       .  S
C2097      C2101   1.540       .  S
C2098      C2469   1.539       .  S
C2098      H2105   1.087       .  S
C2098      C2099   1.359       .  D
C2099      C2472   1.527       .  S
C2100      C2104   1.527       .  S
C2100      H2106   1.103       .  S
C2101      H2107   1.084       .  S
C2102      C2472   1.547       .  S
C2102      C2473   1.376       .  D
C2102      C2462   1.500       .  S
C2103      H2108   1.086       .  S
C2103      C2104   1.358       .  D
C2109      C2110   1.539       .  S
C2109      C2115   1.540       .  S
C2109      C2113   1.540       .  S
C2109      C2145   1.507       .  S
C2110      H2117   1.086       .  S
C2110      C2111   1.359       .  D
C2111      C2112   1.529       .  S
C2111      C2173   1.469       .  S
C2112      C2116   1.525       .  S
C2112      C2114   1.547       .  S
C2112      H2118   1.103       .  S
C2113      H2119   1.084       .  S
C2113      C2114   1.377       .  D
C2114      C2126   1.500       .  S
C2115      H2120   1.087       .  S
C2115      C2116   1.359       .  D
C2116      C2178   1.468       .  S
C2121      C2122   1.537       .  S
C2121      C2127   1.542       .  S
C2121      C2125   1.540       .  S
C2121      C2143   1.506       .  S
C2122      H2129   1.087       .  S
C2122      C2123   1.356       .  D
C2123      C2124   1.528       .  S
C2123      C2185   1.466       .  S
C2124      C2128   1.525       .  S
C2124      C2126   1.547       .  S
C2124      H2130   1.103       .  S
C2125      H2131   1.084       .  S
C2125      C2126   1.377       .  D
C2127      H2132   1.086       .  S
C2127      C2128   1.362       .  D
C2128      C2190   1.468       .  S
O2133      V2141   1.899       .  S
O2133      C2143   1.265       .  A
O2134      C2144   1.264       .  A
O2135      C2145   1.264       .  A
O2136      V2141   1.893       .  S
O2136      C2146   1.264       .  A
O2137      V2142   1.904       .  S
O2137      C2146   1.266       .  A
O2138      C2145   1.266       .  A
O2139      C2144   1.266       .  A
O2140      V2142   1.899       .  S
O2140      C2143   1.264       .  A
V2141      V2142   2.086       .  T
C2144      C2147   1.506       .  S
C2146      C2159   1.506       .  S
C2147      C2148   1.541       .  S
C2147      C2153   1.539       .  S
C2147      C2151   1.539       .  S
C2148      H2155   1.087       .  S
C2148      C2149   1.360       .  D
C2149      C2150   1.525       .  S
C2149      C2211   1.469       .  S
C2150      C2154   1.529       .  S
C2150      C2152   1.548       .  S
C2150      H2156   1.103       .  S
C2151      H2157   1.084       .  S
C2151      C2152   1.376       .  D
C2152      C2164   1.499       .  S
C2153      H2158   1.086       .  S
C2153      C2154   1.359       .  D
C2154      C2216   1.468       .  S
C2159      C2160   1.540       .  S
C2159      C2165   1.539       .  S
C2159      C2163   1.540       .  S
C2160      H2167   1.086       .  S
C2160      C2161   1.361       .  D
C2161      C2162   1.526       .  S
C2161      C2223   1.466       .  S
C2162      C2166   1.527       .  S
C2162      C2164   1.547       .  S
C2162      H2168   1.103       .  S
C2163      H2169   1.084       .  S
C2163      C2164   1.377       .  D
C2165      H2170   1.087       .  S
C2165      C2166   1.357       .  D
C2166      C2228   1.468       .  S
C2171      C2177   1.539       .  S
C2171      C2175   1.539       .  S
C2171      C2208   1.506       .  S
C2172      C2543   1.541       .  S
C2172      H2179   1.087       .  S
C2172      C2173   1.360       .  D
C2173      C2546   1.525       .  S
C2174      C2178   1.529       .  S
C2174      H2180   1.103       .  S
C2175      H2181   1.084       .  S
C2176      C2546   1.548       .  S
C2176      C2547   1.376       .  D
C2176      C2560   1.499       .  S
C2177      H2182   1.086       .  S
C2177      C2178   1.359       .  D
C2183      C2556   1.540       .  S
C2183      C2189   1.539       .  S
C2183      C2187   1.540       .  S
C2183      C2206   1.506       .  S
C2184      H2191   1.086       .  S
C2184      C2185   1.361       .  D
C2186      C2557   1.526       .  S
C2186      C2190   1.527       .  S
C2186      C2560   1.547       .  S
C2186      H2192   1.103       .  S
C2187      H2193   1.084       .  S
C2187      C2560   1.377       .  D
C2189      H2194   1.087       .  S
C2189      C2190   1.357       .  D
O2197      V2203   1.899       .  S
O2197      C2207   1.264       .  A
O2198      C2208   1.266       .  A
O2199      C2580   1.264       .  A
O2200      V2204   1.899       .  S
O2200      C2579   1.265       .  A
O2201      C2206   1.264       .  A
O2202      C2205   1.264       .  A
V2204      V2575   2.086       .  T
C2205      C2209   1.508       .  S
C2205      O2567   1.266       .  A
C2206      O2568   1.266       .  A
C2207      C2221   1.506       .  S
C2209      C2582   1.539       .  S
C2209      C2215   1.540       .  S
C2209      C2213   1.540       .  S
C2210      H2217   1.086       .  S
C2210      C2211   1.359       .  D
C2212      C2583   1.529       .  S
C2212      C2216   1.525       .  S
C2212      C2586   1.547       .  S
C2212      H2218   1.103       .  S
C2213      H2219   1.084       .  S
C2213      C2586   1.377       .  D
C2215      H2220   1.087       .  S
C2215      C2216   1.359       .  D
C2221      C2227   1.542       .  S
C2221      C2225   1.540       .  S
C2222      C2593   1.537       .  S
C2222      H2229   1.087       .  S
C2222      C2223   1.356       .  D
C2223      C2596   1.528       .  S
C2224      C2228   1.525       .  S
C2224      H2230   1.103       .  S
C2225      H2231   1.084       .  S
C2226      C2596   1.547       .  S
C2226      C2597   1.377       .  D
C2226      C2586   1.500       .  S
C2227      H2232   1.086       .  S
C2227      C2228   1.362       .  D
C2233      C2234   1.539       .  S
C2233      C2239   1.539       .  S
C2233      C2237   1.539       .  S
C2233      C2269   1.505       .  S
C2234      H2241   1.087       .  S
C2234      C2235   1.358       .  D
C2235      C2236   1.526       .  S
C2235      C2297   1.467       .  S
C2236      C2240   1.527       .  S
C2236      C2238   1.547       .  S
C2236      H2242   1.103       .  S
C2237      H2243   1.084       .  S
C2237      C2238   1.376       .  D
C2238      C2250   1.500       .  S
C2239      H2244   1.086       .  S
C2239      C2240   1.359       .  D
C2240      C2302   1.466       .  S
C2245      C2246   1.540       .  S
C2245      C2251   1.539       .  S
C2245      C2249   1.540       .  S
C2245      C2267   1.507       .  S
C2246      H2253   1.086       .  S
C2246      C2247   1.360       .  D
C2247      C2248   1.527       .  S
C2247      C2309   1.467       .  S
C2248      C2252   1.526       .  S
C2248      C2250   1.547       .  S
C2248      H2254   1.103       .  S
C2249      H2255   1.084       .  S
C2249      C2250   1.377       .  D
C2251      H2256   1.087       .  S
C2251      C2252   1.358       .  D
C2252      C2314   1.468       .  S
O2257      V2265   1.901       .  S
O2257      C2267   1.265       .  A
O2258      V2389   1.900       .  S
O2258      C2268   1.265       .  A
O2259      V2389   1.898       .  S
O2259      C2269   1.265       .  A
O2260      V2265   1.902       .  S
O2260      C2270   1.265       .  A
O2261      V2266   1.896       .  S
O2261      C2270   1.264       .  A
O2262      V2390   1.897       .  S
O2262      C2269   1.264       .  A
O2263      V2390   1.898       .  S
O2263      C2268   1.265       .  A
O2264      V2266   1.897       .  S
O2264      C2267   1.264       .  A
V2265      O2506   1.896   1_554  S
V2265      O2507   1.898   1_554  S
V2265      V2266   2.087       .  T
V2266      O2510   1.902   1_554  S
V2266      O2511   1.902   1_554  S
C2268      C2271   1.506       .  S
C2270      C2283   1.507       .  S
C2271      C2272   1.539       .  S
C2271      C2277   1.539       .  S
C2271      C2275   1.540       .  S
C2272      H2279   1.086       .  S
C2272      C2273   1.359       .  D
C2273      C2274   1.527       .  S
C2273      C2335   1.467       .  S
C2274      C2278   1.526       .  S
C2274      C2276   1.547       .  S
C2274      H2280   1.103       .  S
C2275      H2281   1.084       .  S
C2275      C2276   1.377       .  D
C2276      C2288   1.500       .  S
C2277      H2282   1.086       .  S
C2277      C2278   1.358       .  D
C2278      C2340   1.466       .  S
C2283      C2284   1.539       .  S
C2283      C2289   1.540       .  S
C2283      C2287   1.540       .  S
C2284      H2291   1.087       .  S
C2284      C2285   1.358       .  D
C2285      C2286   1.526       .  S
C2285      C2347   1.467       .  S
C2286      C2290   1.528       .  S
C2286      C2288   1.547       .  S
C2286      H2292   1.103       .  S
C2287      H2293   1.084       .  S
C2287      C2288   1.376       .  D
C2289      H2294   1.086       .  S
C2289      C2290   1.360       .  D
C2290      C2352   1.468       .  S
C2295      C2301   1.539       .  S
C2295      C2299   1.540       .  S
C2295      C2332   1.506       .  S
C2296      C2667   1.539       .  S
C2296      H2303   1.086       .  S
C2296      C2297   1.359       .  D
C2297      C2670   1.527       .  S
C2298      C2302   1.526       .  S
C2298      H2304   1.103       .  S
C2299      H2305   1.084       .  S
C2300      C2670   1.547       .  S
C2300      C2671   1.377       .  D
C2300      C2684   1.500       .  S
C2301      H2306   1.087       .  S
C2301      C2302   1.358       .  D
C2307      C2680   1.539       .  S
C2307      C2313   1.540       .  S
C2307      C2311   1.540       .  S
C2307      C2330   1.507       .  S
C2308      H2315   1.087       .  S
C2308      C2309   1.358       .  D
C2310      C2681   1.526       .  S
C2310      C2314   1.528       .  S
C2310      C2684   1.547       .  S
C2310      H2316   1.103       .  S
C2311      H2317   1.084       .  S
C2311      C2684   1.376       .  D
C2313      H2318   1.086       .  S
C2313      C2314   1.360       .  D
O2319      V2451   1.897       .  S
O2321      V2327   1.897       .  S
O2321      C2331   1.264       .  A
O2322      C2332   1.265       .  A
O2323      C2704   1.265       .  A
O2324      V2328   1.901       .  S
O2324      C2703   1.265       .  A
O2325      C2330   1.265       .  A
O2326      V2452   1.898       .  S
O2326      C2329   1.265       .  A
V2327      O2567   1.902   1_554  S
V2328      O2574   1.898   1_554  S
V2328      V2699   2.087       .  T
C2329      C2333   1.505       .  S
C2329      O2691   1.264       .  A
C2330      O2692   1.264       .  A
C2331      C2345   1.507       .  S
C2333      C2706   1.539       .  S
C2333      C2339   1.539       .  S
C2333      C2337   1.539       .  S
C2334      H2341   1.087       .  S
C2334      C2335   1.358       .  D
C2336      C2707   1.526       .  S
C2336      C2340   1.527       .  S
C2336      C2710   1.547       .  S
C2336      H2342   1.103       .  S
C2337      H2343   1.084       .  S
C2337      C2710   1.376       .  D
C2339      H2344   1.086       .  S
C2339      C2340   1.359       .  D
C2345      C2351   1.539       .  S
C2345      C2349   1.540       .  S
C2346      C2717   1.540       .  S
C2346      H2353   1.086       .  S
C2346      C2347   1.360       .  D
C2347      C2720   1.527       .  S
C2348      C2352   1.526       .  S
C2348      H2354   1.103       .  S
C2349      H2355   1.084       .  S
C2350      C2720   1.547       .  S
C2350      C2721   1.377       .  D
C2350      C2710   1.500       .  S
C2351      H2356   1.087       .  S
C2351      C2352   1.358       .  D
C2357      C2358   1.538       .  S
C2357      C2363   1.540       .  S
C2357      C2361   1.540       .  S
C2357      C2393   1.506       .  S
C2358      H2365   1.087       .  S
C2358      C2359   1.359       .  D
C2359      C2360   1.526       .  S
C2359      C2421   1.467       .  S
C2360      C2364   1.527       .  S
C2360      C2362   1.547       .  S
C2360      H2366   1.103       .  S
C2361      H2367   1.084       .  S
C2361      C2362   1.377       .  D
C2362      C2374   1.500       .  S
C2363      H2368   1.086       .  S
C2363      C2364   1.359       .  D
C2364      C2426   1.467       .  S
C2369      C2370   1.539       .  S
C2369      C2375   1.539       .  S
C2369      C2373   1.540       .  S
C2369      C2391   1.505       .  S
C2370      H2377   1.087       .  S
C2370      C2371   1.359       .  D
C2371      C2372   1.527       .  S
C2371      C2433   1.466       .  S
C2372      C2376   1.527       .  S
C2372      C2374   1.547       .  S
C2372      H2378   1.103       .  S
C2373      H2379   1.084       .  S
C2373      C2374   1.376       .  D
C2375      H2380   1.086       .  S
C2375      C2376   1.358       .  D
C2376      C2438   1.466       .  S
O2381      V2389   1.899       .  S
O2381      C2391   1.265       .  A
O2382      V2513   1.903       .  S
O2382      C2392   1.266       .  A
O2383      V2513   1.897       .  S
O2383      C2393   1.264       .  A
O2384      V2389   1.898       .  S
O2384      C2394   1.265       .  A
O2385      V2390   1.897       .  S
O2385      C2394   1.264       .  A
O2386      V2514   1.900       .  S
O2386      C2393   1.265       .  A
O2387      V2514   1.895       .  S
O2387      C2392   1.264       .  A
O2388      V2390   1.897       .  S
O2388      C2391   1.264       .  A
V2389      V2390   2.087       .  T
C2392      C2395   1.506       .  S
C2394      C2407   1.505       .  S
C2395      C2396   1.539       .  S
C2395      C2401   1.540       .  S
C2395      C2399   1.540       .  S
C2396      H2403   1.086       .  S
C2396      C2397   1.359       .  D
C2397      C2398   1.528       .  S
C2397      C2459   1.467       .  S
C2398      C2402   1.526       .  S
C2398      C2400   1.547       .  S
C2398      H2404   1.103       .  S
C2399      H2405   1.084       .  S
C2399      C2400   1.376       .  D
C2400      C2412   1.500       .  S
C2401      H2406   1.087       .  S
C2401      C2402   1.359       .  D
C2402      C2464   1.467       .  S
C2407      C2408   1.539       .  S
C2407      C2413   1.539       .  S
C2407      C2411   1.540       .  S
C2408      H2415   1.086       .  S
C2408      C2409   1.358       .  D
C2409      C2410   1.527       .  S
C2409      C2471   1.466       .  S
C2410      C2414   1.526       .  S
C2410      C2412   1.547       .  S
C2410      H2416   1.103       .  S
C2411      H2417   1.084       .  S
C2411      C2412   1.377       .  D
C2413      H2418   1.087       .  S
C2413      C2414   1.359       .  D
C2414      C2476   1.466       .  S
C2419      C2425   1.540       .  S
C2419      C2423   1.540       .  S
C2419      C2456   1.506       .  S
C2420      C2791   1.539       .  S
C2420      H2427   1.086       .  S
C2420      C2421   1.359       .  D
C2421      C2794   1.528       .  S
C2422      C2426   1.526       .  S
C2422      H2428   1.103       .  S
C2423      H2429   1.084       .  S
C2424      C2794   1.547       .  S
C2424      C2795   1.376       .  D
C2424      C2808   1.500       .  S
C2425      H2430   1.087       .  S
C2425      C2426   1.359       .  D
C2431      C2804   1.539       .  S
C2431      C2437   1.539       .  S
C2431      C2435   1.540       .  S
C2431      C2454   1.505       .  S
C2432      H2439   1.086       .  S
C2432      C2433   1.358       .  D
C2434      C2805   1.527       .  S
C2434      C2438   1.526       .  S
C2434      C2808   1.547       .  S
C2434      H2440   1.103       .  S
C2435      H2441   1.084       .  S
C2435      C2808   1.377       .  D
C2437      H2442   1.087       .  S
C2437      C2438   1.359       .  D
O2443      V2575   1.900       .  S
O2445      V2451   1.897       .  S
O2445      C2455   1.264       .  A
O2446      C2456   1.264       .  A
O2447      C2828   1.266       .  A
O2448      V2452   1.899       .  S
O2448      C2827   1.265       .  A
O2449      C2454   1.265       .  A
O2450      V2576   1.897       .  S
O2450      C2453   1.264       .  A
V2452      V2823   2.087       .  T
C2453      C2457   1.506       .  S
C2453      O2815   1.265       .  A
C2454      O2816   1.264       .  A
C2455      C2469   1.505       .  S
C2457      C2830   1.538       .  S
C2457      C2463   1.540       .  S
C2457      C2461   1.540       .  S
C2458      H2465   1.087       .  S
C2458      C2459   1.359       .  D
C2460      C2831   1.526       .  S
C2460      C2464   1.527       .  S
C2460      C2834   1.547       .  S
C2460      H2466   1.103       .  S
C2461      H2467   1.084       .  S
C2461      C2834   1.377       .  D
C2463      H2468   1.086       .  S
C2463      C2464   1.359       .  D
C2469      C2475   1.539       .  S
C2469      C2473   1.540       .  S
C2470      C2841   1.539       .  S
C2470      H2477   1.087       .  S
C2470      C2471   1.359       .  D
C2471      C2844   1.527       .  S
C2472      C2476   1.527       .  S
C2472      H2478   1.103       .  S
C2473      H2479   1.084       .  S
C2474      C2844   1.547       .  S
C2474      C2845   1.376       .  D
C2474      C2834   1.500       .  S
C2475      H2480   1.086       .  S
C2475      C2476   1.358       .  D
C2481      C2482   1.539       .  S
C2481      C2487   1.540       .  S
C2481      C2485   1.540       .  S
C2481      C2517   1.507       .  S
C2482      H2489   1.086       .  S
C2482      C2483   1.359       .  D
C2483      C2484   1.529       .  S
C2483      C2545   1.469       .  S
C2484      C2488   1.525       .  S
C2484      C2486   1.547       .  S
C2484      H2490   1.103       .  S
C2485      H2491   1.084       .  S
C2485      C2486   1.377       .  D
C2486      C2498   1.500       .  S
C2487      H2492   1.087       .  S
C2487      C2488   1.359       .  D
C2488      C2550   1.468       .  S
C2493      C2494   1.537       .  S
C2493      C2499   1.542       .  S
C2493      C2497   1.540       .  S
C2493      C2515   1.506       .  S
C2494      H2501   1.087       .  S
C2494      C2495   1.356       .  D
C2495      C2496   1.528       .  S
C2495      C2557   1.466       .  S
C2496      C2500   1.525       .  S
C2496      C2498   1.547       .  S
C2496      H2502   1.103       .  S
C2497      H2503   1.084       .  S
C2497      C2498   1.377       .  D
C2499      H2504   1.086       .  S
C2499      C2500   1.362       .  D
C2500      C2562   1.468       .  S
O2505      V2513   1.899       .  S
O2505      C2515   1.265       .  A
O2506      C2516   1.264       .  A
O2507      C2517   1.264       .  A
O2508      V2513   1.893       .  S
O2508      C2518   1.264       .  A
O2509      V2514   1.904       .  S
O2509      C2518   1.266       .  A
O2510      C2517   1.266       .  A
O2511      C2516   1.266       .  A
O2512      V2514   1.899       .  S
O2512      C2515   1.264       .  A
V2513      V2514   2.086       .  T
C2516      C2519   1.506       .  S
C2518      C2531   1.506       .  S
C2519      C2520   1.541       .  S
C2519      C2525   1.539       .  S
C2519      C2523   1.539       .  S
C2520      H2527   1.087       .  S
C2520      C2521   1.360       .  D
C2521      C2522   1.525       .  S
C2521      C2583   1.469       .  S
C2522      C2526   1.529       .  S
C2522      C2524   1.548       .  S
C2522      H2528   1.103       .  S
C2523      H2529   1.084       .  S
C2523      C2524   1.376       .  D
C2524      C2536   1.499       .  S
C2525      H2530   1.086       .  S
C2525      C2526   1.359       .  D
C2526      C2588   1.468       .  S
C2531      C2532   1.540       .  S
C2531      C2537   1.539       .  S
C2531      C2535   1.540       .  S
C2532      H2539   1.086       .  S
C2532      C2533   1.361       .  D
C2533      C2534   1.526       .  S
C2533      C2595   1.466       .  S
C2534      C2538   1.527       .  S
C2534      C2536   1.547       .  S
C2534      H2540   1.103       .  S
C2535      H2541   1.084       .  S
C2535      C2536   1.377       .  D
C2537      H2542   1.087       .  S
C2537      C2538   1.357       .  D
C2538      C2600   1.468       .  S
C2543      C2549   1.539       .  S
C2543      C2547   1.539       .  S
C2543      C2580   1.506       .  S
C2544      C2915   1.541       .  S
C2544      H2551   1.087       .  S
C2544      C2545   1.360       .  D
C2545      C2918   1.525       .  S
C2546      C2550   1.529       .  S
C2546      H2552   1.103       .  S
C2547      H2553   1.084       .  S
C2548      C2918   1.548       .  S
C2548      C2919   1.376       .  D
C2548      C2932   1.499       .  S
C2549      H2554   1.086       .  S
C2549      C2550   1.359       .  D
C2555      C2928   1.540       .  S
C2555      C2561   1.539       .  S
C2555      C2559   1.540       .  S
C2555      C2578   1.506       .  S
C2556      H2563   1.086       .  S
C2556      C2557   1.361       .  D
C2558      C2929   1.526       .  S
C2558      C2562   1.527       .  S
C2558      C2932   1.547       .  S
C2558      H2564   1.103       .  S
C2559      H2565   1.084       .  S
C2559      C2932   1.377       .  D
C2561      H2566   1.087       .  S
C2561      C2562   1.357       .  D
O2569      V2575   1.899       .  S
O2569      C2579   1.264       .  A
O2570      C2580   1.266       .  A
O2571      C2952   1.264       .  A
O2572      V2576   1.899       .  S
O2572      C2951   1.265       .  A
O2573      C2578   1.264       .  A
O2574      C2577   1.264       .  A
V2576      V2947   2.086       .  T
C2577      C2581   1.508       .  S
C2577      O2939   1.266       .  A
C2578      O2940   1.266       .  A
C2579      C2593   1.506       .  S
C2581      C2954   1.539       .  S
C2581      C2587   1.540       .  S
C2581      C2585   1.540       .  S
C2582      H2589   1.086       .  S
C2582      C2583   1.359       .  D
C2584      C2955   1.529       .  S
C2584      C2588   1.525       .  S
C2584      C2958   1.547       .  S
C2584      H2590   1.103       .  S
C2585      H2591   1.084       .  S
C2585      C2958   1.377       .  D
C2587      H2592   1.087       .  S
C2587      C2588   1.359       .  D
C2593      C2599   1.542       .  S
C2593      C2597   1.540       .  S
C2594      C2965   1.537       .  S
C2594      H2601   1.087       .  S
C2594      C2595   1.356       .  D
C2595      C2968   1.528       .  S
C2596      C2600   1.525       .  S
C2596      H2602   1.103       .  S
C2597      H2603   1.084       .  S
C2598      C2968   1.547       .  S
C2598      C2969   1.377       .  D
C2598      C2958   1.500       .  S
C2599      H2604   1.086       .  S
C2599      C2600   1.362       .  D
C2605      C2606   1.539       .  S
C2605      C2611   1.539       .  S
C2605      C2609   1.539       .  S
C2605      C2641   1.505       .  S
C2606      H2613   1.087       .  S
C2606      C2607   1.358       .  D
C2607      C2608   1.526       .  S
C2607      C2669   1.467       .  S
C2608      C2612   1.527       .  S
C2608      C2610   1.547       .  S
C2608      H2614   1.103       .  S
C2609      H2615   1.084       .  S
C2609      C2610   1.376       .  D
C2610      C2622   1.500       .  S
C2611      H2616   1.086       .  S
C2611      C2612   1.359       .  D
C2612      C2674   1.466       .  S
C2617      C2618   1.540       .  S
C2617      C2623   1.539       .  S
C2617      C2621   1.540       .  S
C2617      C2639   1.507       .  S
C2618      H2625   1.086       .  S
C2618      C2619   1.360       .  D
C2619      C2620   1.527       .  S
C2619      C2681   1.467       .  S
C2620      C2624   1.526       .  S
C2620      C2622   1.547       .  S
C2620      H2626   1.103       .  S
C2621      H2627   1.084       .  S
C2621      C2622   1.377       .  D
C2623      H2628   1.087       .  S
C2623      C2624   1.358       .  D
C2624      C2686   1.468       .  S
O2629      V2637   1.901       .  S
O2629      C2639   1.265       .  A
O2630      V2761   1.900       .  S
O2630      C2640   1.265       .  A
O2631      V2761   1.898       .  S
O2631      C2641   1.265       .  A
O2632      V2637   1.902       .  S
O2632      C2642   1.265       .  A
O2633      V2638   1.896       .  S
O2633      C2642   1.264       .  A
O2634      V2762   1.897       .  S
O2634      C2641   1.264       .  A
O2635      V2762   1.898       .  S
O2635      C2640   1.265       .  A
O2636      V2638   1.897       .  S
O2636      C2639   1.264       .  A
V2637      O2878   1.896   1_554  S
V2637      O2879   1.898   1_554  S
V2637      V2638   2.087       .  T
V2638      O2882   1.902   1_554  S
V2638      O2883   1.902   1_554  S
C2640      C2643   1.506       .  S
C2642      C2655   1.507       .  S
C2643      C2644   1.539       .  S
C2643      C2649   1.539       .  S
C2643      C2647   1.540       .  S
C2644      H2651   1.086       .  S
C2644      C2645   1.359       .  D
C2645      C2646   1.527       .  S
C2645      C2707   1.467       .  S
C2646      C2650   1.526       .  S
C2646      C2648   1.547       .  S
C2646      H2652   1.103       .  S
C2647      H2653   1.084       .  S
C2647      C2648   1.377       .  D
C2648      C2660   1.500       .  S
C2649      H2654   1.086       .  S
C2649      C2650   1.358       .  D
C2650      C2712   1.466       .  S
C2655      C2656   1.539       .  S
C2655      C2661   1.540       .  S
C2655      C2659   1.540       .  S
C2656      H2663   1.087       .  S
C2656      C2657   1.358       .  D
C2657      C2658   1.526       .  S
C2657      C2719   1.467       .  S
C2658      C2662   1.528       .  S
C2658      C2660   1.547       .  S
C2658      H2664   1.103       .  S
C2659      H2665   1.084       .  S
C2659      C2660   1.376       .  D
C2661      H2666   1.086       .  S
C2661      C2662   1.360       .  D
C2662      C2724   1.468       .  S
C2667      C2673   1.539       .  S
C2667      C2671   1.540       .  S
C2667      C2704   1.506       .  S
C2668      H2675   1.086       .  S
C2668      C2669   1.359       .  D
C2670      C2674   1.526       .  S
C2670      H2676   1.103       .  S
C2671      H2677   1.084       .  S
C2673      H2678   1.086       .  S
C2673      C2674   1.358       .  D
C2679      C2685   1.540       .  S
C2679      C2683   1.540       .  S
C2679      C2702   1.507       .  S
C2680      H2687   1.087       .  S
C2680      C2681   1.358       .  D
C2682      C2686   1.528       .  S
C2682      H2688   1.103       .  S
C2683      H2689   1.084       .  S
C2685      H2690   1.086       .  S
C2685      C2686   1.360       .  D
O2691      V2823   1.897       .  S
O2693      V2699   1.897       .  S
O2693      C2703   1.264       .  A
O2694      C2704   1.265       .  A
O2696      V2700   1.901       .  S
O2697      C2702   1.265       .  A
O2698      V2824   1.898       .  S
O2698      C2701   1.265       .  A
V2699      O2939   1.902   1_554  S
V2700      O2946   1.898   1_554  S
C2701      C2705   1.505       .  S
C2703      C2717   1.507       .  S
C2705      C2711   1.539       .  S
C2705      C2709   1.539       .  S
C2706      H2713   1.087       .  S
C2706      C2707   1.358       .  D
C2708      C2712   1.527       .  S
C2708      H2714   1.103       .  S
C2709      H2715   1.084       .  S
C2711      H2716   1.086       .  S
C2711      C2712   1.359       .  D
C2717      C2723   1.539       .  S
C2717      C2721   1.540       .  S
C2718      H2725   1.086       .  S
C2718      C2719   1.360       .  D
C2720      C2724   1.526       .  S
C2720      H2726   1.103       .  S
C2721      H2727   1.084       .  S
C2723      H2728   1.087       .  S
C2723      C2724   1.358       .  D
C2729      C2730   1.538       .  S
C2729      C2735   1.540       .  S
C2729      C2733   1.540       .  S
C2729      C2765   1.506       .  S
C2730      H2737   1.087       .  S
C2730      C2731   1.359       .  D
C2731      C2732   1.526       .  S
C2731      C2793   1.467       .  S
C2732      C2736   1.527       .  S
C2732      C2734   1.547       .  S
C2732      H2738   1.103       .  S
C2733      H2739   1.084       .  S
C2733      C2734   1.377       .  D
C2734      C2746   1.500       .  S
C2735      H2740   1.086       .  S
C2735      C2736   1.359       .  D
C2736      C2798   1.467       .  S
C2741      C2742   1.539       .  S
C2741      C2747   1.539       .  S
C2741      C2745   1.540       .  S
C2741      C2763   1.505       .  S
C2742      H2749   1.087       .  S
C2742      C2743   1.359       .  D
C2743      C2744   1.527       .  S
C2743      C2805   1.466       .  S
C2744      C2748   1.527       .  S
C2744      C2746   1.547       .  S
C2744      H2750   1.103       .  S
C2745      H2751   1.084       .  S
C2745      C2746   1.376       .  D
C2747      H2752   1.086       .  S
C2747      C2748   1.358       .  D
C2748      C2810   1.466       .  S
O2753      V2761   1.899       .  S
O2753      C2763   1.265       .  A
O2754      V2885   1.903       .  S
O2754      C2764   1.266       .  A
O2755      V2885   1.897       .  S
O2755      C2765   1.264       .  A
O2756      V2761   1.898       .  S
O2756      C2766   1.265       .  A
O2757      V2762   1.897       .  S
O2757      C2766   1.264       .  A
O2758      V2886   1.900       .  S
O2758      C2765   1.265       .  A
O2759      V2886   1.895       .  S
O2759      C2764   1.264       .  A
O2760      V2762   1.897       .  S
O2760      C2763   1.264       .  A
V2761      V2762   2.087       .  T
C2764      C2767   1.506       .  S
C2766      C2779   1.505       .  S
C2767      C2768   1.539       .  S
C2767      C2773   1.540       .  S
C2767      C2771   1.540       .  S
C2768      H2775   1.086       .  S
C2768      C2769   1.359       .  D
C2769      C2770   1.528       .  S
C2769      C2831   1.467       .  S
C2770      C2774   1.526       .  S
C2770      C2772   1.547       .  S
C2770      H2776   1.103       .  S
C2771      H2777   1.084       .  S
C2771      C2772   1.376       .  D
C2772      C2784   1.500       .  S
C2773      H2778   1.087       .  S
C2773      C2774   1.359       .  D
C2774      C2836   1.467       .  S
C2779      C2780   1.539       .  S
C2779      C2785   1.539       .  S
C2779      C2783   1.540       .  S
C2780      H2787   1.086       .  S
C2780      C2781   1.358       .  D
C2781      C2782   1.527       .  S
C2781      C2843   1.466       .  S
C2782      C2786   1.526       .  S
C2782      C2784   1.547       .  S
C2782      H2788   1.103       .  S
C2783      H2789   1.084       .  S
C2783      C2784   1.377       .  D
C2785      H2790   1.087       .  S
C2785      C2786   1.359       .  D
C2786      C2848   1.466       .  S
C2791      C2797   1.540       .  S
C2791      C2795   1.540       .  S
C2791      C2828   1.506       .  S
C2792      H2799   1.086       .  S
C2792      C2793   1.359       .  D
C2794      C2798   1.526       .  S
C2794      H2800   1.103       .  S
C2795      H2801   1.084       .  S
C2797      H2802   1.087       .  S
C2797      C2798   1.359       .  D
C2803      C2809   1.539       .  S
C2803      C2807   1.540       .  S
C2803      C2826   1.505       .  S
C2804      H2811   1.086       .  S
C2804      C2805   1.358       .  D
C2806      C2810   1.526       .  S
C2806      H2812   1.103       .  S
C2807      H2813   1.084       .  S
C2809      H2814   1.087       .  S
C2809      C2810   1.359       .  D
O2815      V2947   1.900       .  S
O2817      V2823   1.897       .  S
O2817      C2827   1.264       .  A
O2818      C2828   1.264       .  A
O2820      V2824   1.899       .  S
O2821      C2826   1.265       .  A
O2822      V2948   1.897       .  S
O2822      C2825   1.264       .  A
C2825      C2829   1.506       .  S
C2827      C2841   1.505       .  S
C2829      C2835   1.540       .  S
C2829      C2833   1.540       .  S
C2830      H2837   1.087       .  S
C2830      C2831   1.359       .  D
C2832      C2836   1.527       .  S
C2832      H2838   1.103       .  S
C2833      H2839   1.084       .  S
C2835      H2840   1.086       .  S
C2835      C2836   1.359       .  D
C2841      C2847   1.539       .  S
C2841      C2845   1.540       .  S
C2842      H2849   1.087       .  S
C2842      C2843   1.359       .  D
C2844      C2848   1.527       .  S
C2844      H2850   1.103       .  S
C2845      H2851   1.084       .  S
C2847      H2852   1.086       .  S
C2847      C2848   1.358       .  D
C2853      C2854   1.539       .  S
C2853      C2859   1.540       .  S
C2853      C2857   1.540       .  S
C2853      C2889   1.507       .  S
C2854      H2861   1.086       .  S
C2854      C2855   1.359       .  D
C2855      C2856   1.529       .  S
C2855      C2917   1.469       .  S
C2856      C2860   1.525       .  S
C2856      C2858   1.547       .  S
C2856      H2862   1.103       .  S
C2857      H2863   1.084       .  S
C2857      C2858   1.377       .  D
C2858      C2870   1.500       .  S
C2859      H2864   1.087       .  S
C2859      C2860   1.359       .  D
C2860      C2922   1.468       .  S
C2865      C2866   1.537       .  S
C2865      C2871   1.542       .  S
C2865      C2869   1.540       .  S
C2865      C2887   1.506       .  S
C2866      H2873   1.087       .  S
C2866      C2867   1.356       .  D
C2867      C2868   1.528       .  S
C2867      C2929   1.466       .  S
C2868      C2872   1.525       .  S
C2868      C2870   1.547       .  S
C2868      H2874   1.103       .  S
C2869      H2875   1.084       .  S
C2869      C2870   1.377       .  D
C2871      H2876   1.086       .  S
C2871      C2872   1.362       .  D
C2872      C2934   1.468       .  S
O2877      V2885   1.899       .  S
O2877      C2887   1.265       .  A
O2878      C2888   1.264       .  A
O2879      C2889   1.264       .  A
O2880      V2885   1.893       .  S
O2880      C2890   1.264       .  A
O2881      V2886   1.904       .  S
O2881      C2890   1.266       .  A
O2882      C2889   1.266       .  A
O2883      C2888   1.266       .  A
O2884      V2886   1.899       .  S
O2884      C2887   1.264       .  A
V2885      V2886   2.086       .  T
C2888      C2891   1.506       .  S
C2890      C2903   1.506       .  S
C2891      C2892   1.541       .  S
C2891      C2897   1.539       .  S
C2891      C2895   1.539       .  S
C2892      H2899   1.087       .  S
C2892      C2893   1.360       .  D
C2893      C2894   1.525       .  S
C2893      C2955   1.469       .  S
C2894      C2898   1.529       .  S
C2894      C2896   1.548       .  S
C2894      H2900   1.103       .  S
C2895      H2901   1.084       .  S
C2895      C2896   1.376       .  D
C2896      C2908   1.499       .  S
C2897      H2902   1.086       .  S
C2897      C2898   1.359       .  D
C2898      C2960   1.468       .  S
C2903      C2904   1.540       .  S
C2903      C2909   1.539       .  S
C2903      C2907   1.540       .  S
C2904      H2911   1.086       .  S
C2904      C2905   1.361       .  D
C2905      C2906   1.526       .  S
C2905      C2967   1.466       .  S
C2906      C2910   1.527       .  S
C2906      C2908   1.547       .  S
C2906      H2912   1.103       .  S
C2907      H2913   1.084       .  S
C2907      C2908   1.377       .  D
C2909      H2914   1.087       .  S
C2909      C2910   1.357       .  D
C2910      C2972   1.468       .  S
C2915      C2921   1.539       .  S
C2915      C2919   1.539       .  S
C2915      C2952   1.506       .  S
C2916      H2923   1.087       .  S
C2916      C2917   1.360       .  D
C2918      C2922   1.529       .  S
C2918      H2924   1.103       .  S
C2919      H2925   1.084       .  S
C2921      H2926   1.086       .  S
C2921      C2922   1.359       .  D
C2927      C2933   1.539   1_545  S
C2927      C2931   1.540       .  S
C2927      C2950   1.506       .  S
C2928      H2935   1.086       .  S
C2928      C2929   1.361       .  D
C2930      C2934   1.527   1_545  S
C2930      H2936   1.103       .  S
C2931      H2937   1.084       .  S
C2933      H2938   1.087       .  S
C2933      C2934   1.357       .  D
O2941      V2947   1.899       .  S
O2941      C2951   1.264       .  A
O2942      C2952   1.266       .  A
O2944      V2948   1.899       .  S
O2945      C2950   1.264   1_565  A
O2946      C2949   1.264   1_565  A
C2949      C2953   1.508       .  S
C2951      C2965   1.506       .  S
C2953      C2959   1.540   1_545  S
C2953      C2957   1.540       .  S
C2954      H2961   1.086       .  S
C2954      C2955   1.359       .  D
C2956      C2960   1.525   1_545  S
C2956      H2962   1.103       .  S
C2957      H2963   1.084       .  S
C2959      H2964   1.087       .  S
C2959      C2960   1.359       .  D
C2965      C2971   1.542       .  S
C2965      C2969   1.540       .  S
C2966      H2973   1.087       .  S
C2966      C2967   1.356       .  D
C2968      C2972   1.525       .  S
C2968      H2974   1.103       .  S
C2969      H2975   1.084       .  S
C2971      H2976   1.086       .  S
C2971      C2972   1.362       .  D
