geometry optimzed in LAMMPS
_audit_creation_date              2020-11-30 
_audit_creation_method            'lammps2cif' 
_symmetry_space_group_name_H-M    'P1' 
_symmetry_Int_Tables_number       1 
_symmetry_cell_setting            triclinic 
loop_ 
_symmetry_equiv_pos_as_xyz 
  x,y,z 
_cell_length_a                    25.97365392 
_cell_length_b                    25.91572239244771 
_cell_length_c                    25.909401897859762 
_cell_angle_alpha                 90.04734438815518 
_cell_angle_beta                  89.79914126886189 
_cell_angle_gamma                 89.89733664080994 
loop_ 
_atom_site_label 
_atom_site_type_symbol 
_atom_site_fract_x 
_atom_site_fract_y 
_atom_site_fract_z 
_atom_site_charge 
N1          N  0.99822797  0.50258345  0.58027917    -0.36700
N2          N  0.99907474  0.42307866  0.50249443    -0.57200
N3          N  0.99730018  0.50177134  0.42305787    -0.36700
N4          N  0.00108500  0.58134640  0.50052440    -0.57200
C5          C  0.01268222  0.46093653  0.60806031     0.26900
C6          C  0.01303595  0.54485321  0.60680310     0.26900
C7          C  0.01009638  0.45915576  0.39578028     0.26900
C8          C  0.01207414  0.54320990  0.39498268     0.26900
C9          C  0.98716411  0.39493266  0.54472900     0.35500
C10         C  0.98558828  0.39436936  0.46119952     0.35500
C11         C  0.98714122  0.60942500  0.54216490     0.35500
C12         C  0.98772774  0.60935093  0.45873185     0.35500
C13         C  0.03772643  0.47683728  0.65248043    -0.21900
C14         C  0.03805215  0.52999631  0.65163081    -0.21900
C15         C  0.03402152  0.47351626  0.35008373    -0.21900
C16         C  0.03551608  0.52668146  0.34968800    -0.21900
C17         C  0.96557986  0.34826740  0.53029197    -0.23000
C18         C  0.96448816  0.34794181  0.47724727    -0.23000
C19         C  0.96411630  0.65519299  0.52686408    -0.23000
C20         C  0.96444943  0.65513571  0.47383808    -0.23000
C21         C  0.00001163  0.40947788  0.59561870    -0.18300
C22         C  0.99988507  0.59595518  0.59329820    -0.18300
C23         C  0.00005806  0.59503124  0.40759058    -0.18300
C24         C  0.99643776  0.40819942  0.40955936    -0.18300
H25         H  0.05344358  0.45272397  0.68267416     0.14600
H26         H  0.05401639  0.55483119  0.68109418     0.14600
H27         H  0.04819456  0.44833538  0.31984748     0.14600
H28         H  0.05107233  0.55040495  0.31904275     0.14600
H29         H  0.95253538  0.31749076  0.55530438     0.12800
H30         H  0.95041192  0.31681732  0.45330865     0.12800
H31         H  0.94919033  0.68565738  0.55130857     0.12800
H32         H  0.94954697  0.68544134  0.44934608     0.12800
H33         H  0.97382514  0.50237065  0.54844632     0.26100
H34         H  0.97366438  0.50253100  0.45561744     0.26100
O35         O  0.99347260  0.14853409  0.08658262    -0.80200
O36         O  0.99993503  0.85413144  0.08406963    -0.81700
O37         O  0.91677551  0.00750941  0.14909667    -0.78800
O38         O  0.08577205  0.00235335  0.14789851    -0.77100
O39         O  0.14871915  0.99844792  0.08610512    -0.78900
O40         O  0.85402801  0.00472926  0.08715358    -0.79900
O41         O  0.00129919  0.91609444  0.14707131    -0.81200
O42         O  0.99898391  0.08611582  0.14882234    -0.81500
Eu43       Eu  0.00071094  0.00158658  0.10587700     2.39200
O44         O  0.05211575  0.94815181  0.05352445    -0.89000
O45         O  0.94782882  0.05328287  0.05356989    -0.92600
C46         C  0.99485519  0.13351950  0.13410907     1.02100
C47         C  0.00060710  0.86865753  0.13169273     1.01900
C48         C  0.86936012  0.00774554  0.13446150     1.01900
C49         C  0.13343693  0.00033447  0.13352330     0.99700
H50         H  0.92627054  0.92801971  0.07568598     0.29500
O51         O  0.94772645  0.94929379  0.05381159    -1.01400
H52         H  0.07355413  0.07632850  0.07565494     0.29500
O53         O  0.05240854  0.05466183  0.05397025    -1.03900
O54         O  0.99601291  0.85501162  0.91515798    -0.81100
O55         O  0.99881209  0.14924201  0.91697204    -0.80700
O56         O  0.85242010  0.91697444  0.00428149    -0.79100
O57         O  0.14626296  0.91558642  0.00227775    -0.82500
O58         O  0.14585755  0.08661383  0.00323670    -0.80300
O59         O  0.85178078  0.08587364  0.00099037    -0.79000
O60         O  0.91672411  0.00324349  0.85330009    -0.80500
O61         O  0.08779507  0.00157074  0.85572455    -0.82400
O62         O  0.85444167  0.99734259  0.91601030    -0.79100
O63         O  0.14917398  0.99794822  0.91892761    -0.81800
O64         O  0.91451934  0.85442554  0.00148164    -0.77600
O65         O  0.91380679  0.14847448  0.99928141    -0.77600
O66         O  0.08327448  0.14904346  0.00011551    -0.77200
O67         O  0.08365396  0.85373901  0.99672841    -0.80700
O68         O  0.00010240  0.91814667  0.85360077    -0.80200
O69         O  0.00383952  0.08707576  0.85433727    -0.78500
Eu70       Eu  0.99932188  0.89703085  0.00008496     2.39800
Eu71       Eu  0.99901337  0.10641639  0.00143302     2.39600
Eu72       Eu  0.89534829  0.00143175  0.00139138     2.38400
Eu73       Eu  0.10473509  0.00104891  0.00226798     2.39900
Eu74       Eu  0.00132190  0.00251158  0.89641040     2.39800
O75         O  0.05293933  0.05426146  0.94975853    -0.92900
O76         O  0.94792410  0.95002626  0.94796097    -0.91800
C77         C  0.99760653  0.87050250  0.86784876     1.02300
C78         C  0.00170720  0.13447101  0.86948297     1.01000
C79         C  0.86704431  0.86931055  0.00377850     1.00400
C80         C  0.13115350  0.86827118  0.99866419     1.02400
C81         C  0.13067627  0.13409779  0.00161963     1.01300
C82         C  0.86636377  0.13348675  0.99979902     1.00200
C83         C  0.86941080  0.99967103  0.86850478     1.00200
C84         C  0.13501762  0.99881857  0.87130139     1.02800
H85         H  0.92601305  0.07543178  0.92694460     0.30200
O86         O  0.94750274  0.05405267  0.94864295    -1.05100
H87         H  0.07398170  0.92777715  0.92706890     0.32300
O88         O  0.05265763  0.94944620  0.94875500    -1.07600
N89         N  0.50298305  0.99354435  0.58088737    -0.36700
N90         N  0.58102610  0.00850538  0.50204978    -0.57200
N91         N  0.50108140  0.00783837  0.42340954    -0.36700
N92         N  0.42287732  0.99926832  0.50284472    -0.57200
C93         C  0.54447328  0.00577520  0.60969176     0.26900
C94         C  0.46088384  0.00278051  0.61029335     0.26900
C95         C  0.54196533  0.02477136  0.39569788     0.26900
C96         C  0.45811107  0.01836761  0.39584046     0.26900
C97         C  0.61134187  0.99546692  0.54231910     0.35500
C98         C  0.61063796  0.00443871  0.45927341     0.35500
C99         C  0.39506087  0.98364451  0.54417264     0.35500
C100        C  0.39395025  0.98919188  0.46072988     0.35500
C101        C  0.52871885  0.02296269  0.65789266    -0.21900
C102        C  0.47582790  0.02139724  0.65817557    -0.21900
C103        C  0.52482728  0.04641605  0.34992206    -0.21900
C104        C  0.47190187  0.04256802  0.35009044    -0.21900
C105        C  0.66042376  0.98322451  0.52519606    -0.23000
C106        C  0.65999210  0.98885751  0.47248180    -0.23000
C107        C  0.34837733  0.96346224  0.52834906    -0.23000
C108        C  0.34774989  0.96674353  0.47546313    -0.23000
C109        C  0.59613451  0.99866022  0.59453788    -0.18300
C110        C  0.40976072  0.99121773  0.59608497    -0.18300
C111        C  0.40733509  0.00347437  0.40965034    -0.18300
C112        C  0.59436618  0.01730701  0.40888016    -0.18300
H113        H  0.55284889  0.03514772  0.68961035     0.14600
H114        H  0.45125718  0.03216477  0.69025025     0.14600
H115        H  0.54810188  0.06269151  0.31928116     0.14600
H116        H  0.44658078  0.05554927  0.31964698     0.14600
H117        H  0.69319411  0.97197367  0.54832261     0.12800
H118        H  0.69240696  0.98248467  0.44689037     0.12800
H119        H  0.31787177  0.94820457  0.55242436     0.12800
H120        H  0.31661681  0.95432471  0.45078295     0.12800
H121        H  0.50365436  0.97424234  0.54564631     0.26100
H122        H  0.50287412  0.98472697  0.45612588     0.26100
N123        N  0.50006116  0.57989707  0.99635743    -0.36700
N124        N  0.57654459  0.49939696  0.00149353    -0.57200
N125        N  0.49538422  0.42253206  0.99461270    -0.36700
N126        N  0.41894880  0.50297678  0.98344617    -0.57200
C127        C  0.54412445  0.60648583  0.98791262     0.26900
C128        C  0.46087920  0.60839749  0.97716024     0.26900
C129        C  0.53756838  0.39336426  0.98501261     0.26900
C130        C  0.45404061  0.39559459  0.97826772     0.26900
C131        C  0.60430311  0.53988263  0.01901911     0.35500
C132        C  0.60185435  0.45626633  0.01618655     0.35500
C133        C  0.39078797  0.54586466  0.99275060     0.35500
C134        C  0.38804858  0.46241071  0.99415928     0.35500
C135        C  0.53277929  0.65198083  0.96205671    -0.21900
C136        C  0.48016385  0.65334148  0.95562876    -0.21900
C137        C  0.52288364  0.34756993  0.96152560    -0.21900
C138        C  0.47002160  0.34888372  0.95751975    -0.21900
C139        C  0.64693794  0.52227752  0.04586893    -0.23000
C140        C  0.64563479  0.46925437  0.04361502    -0.23000
C141        C  0.34182462  0.53254767  0.00948620    -0.23000
C142        C  0.34012339  0.47957810  0.01049215    -0.23000
C143        C  0.59333768  0.59203545  0.00673516    -0.18300
C144        C  0.40804624  0.59659565  0.98297722    -0.18300
C145        C  0.40228203  0.41030516  0.98661505    -0.18300
C146        C  0.58808456  0.40572459  0.00102571    -0.18300
H147        H  0.55946479  0.68151560  0.94963308     0.14600
H148        H  0.45850195  0.68417103  0.93770350     0.14600
H149        H  0.54746559  0.31596407  0.94957408     0.14600
H150        H  0.44599599  0.31856590  0.94197971     0.14600
H151        H  0.67628638  0.54513033  0.06456846     0.12800
H152        H  0.67376278  0.44319933  0.06003068     0.12800
H153        H  0.31062187  0.55825795  0.01999449     0.12800
H154        H  0.30735808  0.45648767  0.02193806     0.12800
H155        H  0.49616068  0.54739679  0.01967043     0.26100
H156        H  0.49418827  0.45580709  0.01712156     0.26100
C157        C  0.63450726  0.63246774  0.01176497    -0.01300
C158        C  0.62319440  0.68074902  0.03370503    -0.09400
C159        C  0.65981070  0.72025828  0.03447584    -0.18200
C160        C  0.71007725  0.71230958  0.01481087     0.04200
C161        C  0.72255677  0.66230221  0.99590061     0.18400
C162        C  0.68467982  0.62363081  0.99329949    -0.19600
C163        C  0.77267136  0.65129860  0.97910701    -0.20900
C164        C  0.81050569  0.68920409  0.97964189    -0.19400
C165        C  0.79886985  0.73951616  0.99559169     0.19800
C166        C  0.74839802  0.75198120  0.01313344     0.01900
C167        C  0.73827193  0.80384526  0.02697069    -0.14200
C168        C  0.77658113  0.84154148  0.02349162    -0.11900
C169        C  0.82649141  0.82897666  0.00677483     0.01400
C170        C  0.83732991  0.77762442  0.99327499    -0.24100
H171        H  0.58527837  0.68834099  0.04954624     0.09400
H172        H  0.64778185  0.75641051  0.05123892     0.13000
H173        H  0.69416851  0.58666999  0.97608511     0.11700
H174        H  0.78270124  0.61304354  0.96540508     0.12900
H175        H  0.84891062  0.67935216  0.96637573     0.11900
H176        H  0.70085311  0.81670698  0.03972132     0.09000
H177        H  0.76702862  0.88078543  0.03437362     0.12300
H178        H  0.87560982  0.76736426  0.97989340     0.14200
C179        C  0.62893042  0.36521316  0.99948953    -0.01300
C180        C  0.67330495  0.37331647  0.96985824    -0.09400
C181        C  0.71260713  0.33659757  0.96828017    -0.18200
C182        C  0.70868670  0.28995047  0.99628426     0.04200
C183        C  0.66269894  0.28098911  0.02490064     0.18400
C184        C  0.62370141  0.31878998  0.02681919    -0.19600
C185        C  0.65590135  0.23428608  0.05117673    -0.20900
C186        C  0.69368238  0.19613562  0.04943359    -0.19400
C187        C  0.73991785  0.20432037  0.02270942     0.19800
C188        C  0.74852352  0.25175792  0.99655730     0.01900
C189        C  0.79702561  0.25924738  0.97266590    -0.14200
C190        C  0.83501455  0.22105905  0.97421023    -0.11900
C191        C  0.82583225  0.17380327  0.99871437     0.01400
C192        C  0.77798675  0.16559755  0.02263163    -0.24100
H193        H  0.67753337  0.40849191  0.94768120     0.09400
H194        H  0.74523398  0.34558259  0.94416007     0.13000
H195        H  0.58916096  0.31216669  0.04948509     0.11700
H196        H  0.62089273  0.22700185  0.07284187     0.12900
H197        H  0.68698959  0.16022532  0.06977706     0.11900
H198        H  0.80721687  0.29458408  0.95332336     0.09000
H199        H  0.87168510  0.22838329  0.95556543     0.12300
H200        H  0.77084497  0.12943362  0.04241224     0.14200
C201        C  0.17125572  0.82790835  0.99529850    -0.01300
C202        C  0.16392529  0.78465152  0.96379039    -0.09400
C203        C  0.20254175  0.74744363  0.95833791    -0.18200
C204        C  0.24964068  0.75189088  0.98524355     0.04200
C205        C  0.25600358  0.79493934  0.01871886     0.18400
C206        C  0.21743585  0.83286285  0.02260984    -0.19600
C207        C  0.30057553  0.79961663  0.04854300    -0.20900
C208        C  0.33877950  0.76202602  0.04644588    -0.19400
C209        C  0.33406077  0.71961485  0.01334798     0.19800
C210        C  0.29008786  0.71460506  0.98117772     0.01900
C211        C  0.28860257  0.67246914  0.94643995    -0.14200
C212        C  0.32774254  0.63545024  0.94583995    -0.11900
C213        C  0.36934029  0.63896883  0.97988008     0.01400
C214        C  0.37280250  0.68173503  0.01276217    -0.24100
H215        H  0.12845816  0.78007847  0.94238304     0.09400
H216        H  0.19403670  0.71524800  0.93346227     0.13000
H217        H  0.22295707  0.86591321  0.04769610     0.11700
H218        H  0.30553252  0.83215034  0.07436343     0.12900
H219        H  0.37235607  0.76623915  0.07080214     0.11900
H220        H  0.25779245  0.66711206  0.91922194     0.09000
H221        H  0.32505123  0.60319793  0.91935742     0.12300
H222        H  0.40524830  0.68482370  0.03881539     0.14200
C223        C  0.36242960  0.36913832  0.98952732    -0.01300
C224        C  0.36863014  0.32830546  0.02427084    -0.09400
C225        C  0.33204387  0.28916636  0.02779500    -0.18200
C226        C  0.28734610  0.28987096  0.99679689     0.04200
C227        C  0.28111951  0.33158345  0.96164026     0.18400
C228        C  0.31869006  0.37041899  0.95805925    -0.19600
C229        C  0.23740131  0.33434841  0.93034869    -0.20900
C230        C  0.19945098  0.29670824  0.93334404    -0.19400
C231        C  0.20447647  0.25512168  0.96738460     0.19800
C232        C  0.24863471  0.25082237  0.99943311     0.01900
C233        C  0.25216507  0.20742934  0.03243037    -0.14200
C234        C  0.21391542  0.16966555  0.03285513    -0.11900
C235        C  0.17055852  0.17438901  0.00138900     0.01400
C236        C  0.16570905  0.21746384  0.96920908    -0.24100
H237        H  0.40212717  0.32680448  0.04903819     0.09400
H238        H  0.33978706  0.25917503  0.05545116     0.13000
H239        H  0.31394893  0.40183672  0.93085230     0.11700
H240        H  0.23241344  0.36598411  0.90348090     0.12900
H241        H  0.16599691  0.30003444  0.90866545     0.11900
H242        H  0.28416587  0.20118387  0.05800246     0.09000
H243        H  0.21798427  0.13677850  0.05833530     0.12300
H244        H  0.13221882  0.22096344  0.94454425     0.14200
C245        C  0.63595714  0.99712019  0.63537635    -0.01300
C246        C  0.63918536  0.95480299  0.66864131    -0.09400
C247        C  0.67572073  0.95371086  0.70809345    -0.18200
C248        C  0.71021060  0.99534220  0.71541346     0.04200
C249        C  0.70604553  0.03843519  0.68164125     0.18400
C250        C  0.66908333  0.03895205  0.64224621    -0.19600
C251        C  0.73914169  0.08059386  0.68698108    -0.20900
C252        C  0.77768350  0.08028483  0.72402709    -0.19400
C253        C  0.78353909  0.03818335  0.75727189     0.19800
C254        C  0.74912111  0.99558163  0.75437309     0.01900
C255        C  0.75535567  0.95516901  0.79056428    -0.14200
C256        C  0.79441500  0.95685263  0.82747851    -0.11900
C257        C  0.82904490  0.99805681  0.82883018     0.01400
C258        C  0.82358917  0.03855545  0.79363988    -0.24100
H259        H  0.61331258  0.92240356  0.66390772     0.09400
H260        H  0.67629293  0.91960671  0.73182822     0.13000
H261        H  0.66590317  0.07197000  0.61674870     0.11700
H262        H  0.73576718  0.11371950  0.66169643     0.12900
H263        H  0.80324372  0.11319239  0.72657574     0.11900
H264        H  0.73043190  0.92200629  0.79170008     0.09000
H265        H  0.79797336  0.92548190  0.85487443     0.12300
H266        H  0.84990762  0.07096004  0.79542186     0.14200
C267        C  0.17605619  0.99593809  0.83187745    -0.01300
C268        C  0.21850197  0.96326049  0.83885244    -0.09400
C269        C  0.25734098  0.96005039  0.80145674    -0.18200
C270        C  0.25534896  0.99050444  0.75617470     0.04200
C271        C  0.21260758  0.02441991  0.75012837     0.18400
C272        C  0.17326718  0.02620408  0.78737480    -0.19600
C273        C  0.20938654  0.05670730  0.70706631    -0.20900
C274        C  0.24763443  0.05611610  0.66955615    -0.19400
C275        C  0.28969950  0.02268303  0.67376195     0.19800
C276        C  0.29418934  0.98901975  0.71687854     0.01900
C277        C  0.33721640  0.95540002  0.71846011    -0.14200
C278        C  0.37412844  0.95562282  0.67902462    -0.11900
C279        C  0.36957714  0.98944379  0.63714359     0.01400
C280        C  0.32735207  0.02286585  0.63486921    -0.24100
H281        H  0.22126664  0.93947726  0.87312021     0.09400
H282        H  0.28857565  0.93381815  0.80932790     0.13000
H283        H  0.14079828  0.05206812  0.78227065     0.11700
H284        H  0.17711144  0.08285224  0.70247034     0.12900
H285        H  0.24409522  0.08181670  0.63677325     0.11900
H286        H  0.34325196  0.92832966  0.74940730     0.09000
H287        H  0.40661237  0.92944132  0.68127841     0.12300
H288        H  0.32402413  0.04931050  0.60261573     0.14200
C289        C  0.36617872  0.00389195  0.36935454    -0.01300
C290        C  0.32071913  0.03204464  0.37720451    -0.09400
C291        C  0.28144603  0.03170203  0.34049578    -0.18200
C292        C  0.28674787  0.00382328  0.29376288     0.04200
C293        C  0.33327265  0.97589512  0.28560687     0.18400
C294        C  0.37205442  0.97573887  0.32344066    -0.19600
C295        C  0.34095570  0.94852223  0.23959672    -0.20900
C296        C  0.30372119  0.94879549  0.20107714    -0.19400
C297        C  0.25745259  0.97583742  0.20784111     0.19800
C298        C  0.24795307  0.00314534  0.25461300     0.01900
C299        C  0.19999306  0.02854688  0.26010565    -0.14200
C300        C  0.16330493  0.02711587  0.22088867    -0.11900
C301        C  0.17308802  0.00100201  0.17455329     0.01400
C302        C  0.22046976  0.97560432  0.16814968    -0.24100
H303        H  0.31550233  0.05437199  0.41221264     0.09400
H304        H  0.24772602  0.05421068  0.34963241     0.13000
H305        H  0.40708272  0.95373798  0.31719485     0.11700
H306        H  0.37629280  0.92713163  0.23312221     0.12900
H307        H  0.31114304  0.92757931  0.16574676     0.11900
H308        H  0.18939699  0.04960259  0.29439323     0.09000
H309        H  0.12712889  0.04723108  0.22666566     0.12300
H310        H  0.22819318  0.95482740  0.13258909     0.14200
C311        C  0.63392993  0.02047745  0.36737219    -0.01300
C312        C  0.67229046  0.05835806  0.36834771    -0.09400
C313        C  0.71148552  0.05871178  0.33110491    -0.18200
C314        C  0.71346299  0.02073141  0.29175935     0.04200
C315        C  0.67374589  0.98297474  0.29085795     0.18400
C316        C  0.63465217  0.98328451  0.32833424    -0.19600
C317        C  0.67337198  0.94469322  0.25281743    -0.20900
C318        C  0.71126031  0.94326503  0.21496118    -0.19400
C319        C  0.75085257  0.97972282  0.21452336     0.19800
C320        C  0.75316308  0.01861048  0.25330932     0.01900
C321        C  0.79535292  0.05314352  0.25198502    -0.14200
C322        C  0.83325604  0.04916700  0.21365971    -0.11900
C323        C  0.82968849  0.01160326  0.17499400     0.01400
C324        C  0.78837895  0.97719441  0.17549385    -0.24100
H325        H  0.67215974  0.08740282  0.39844641     0.09400
H326        H  0.73967718  0.08900693  0.33419457     0.13000
H327        H  0.60503223  0.95383316  0.32785198     0.11700
H328        H  0.64334205  0.91571641  0.25217687     0.12900
H329        H  0.70966060  0.91325544  0.18584764     0.11900
H330        H  0.80038024  0.08323659  0.28024085     0.09000
H331        H  0.86515909  0.07606629  0.21374866     0.12300
H332        H  0.78609359  0.94762701  0.14591847     0.14200
C333        C  0.00231846  0.36921872  0.63652980    -0.01300
C334        C  0.03280818  0.32528589  0.62922787    -0.09400
C335        C  0.03452524  0.28652525  0.66640958    -0.18200
C336        C  0.00587540  0.29063918  0.71276153     0.04200
C337        C  0.97560574  0.33582215  0.72048016     0.18400
C338        C  0.97405491  0.37449209  0.68245888    -0.19600
C339        C  0.94676561  0.34188951  0.76585186    -0.20900
C340        C  0.94703159  0.30384211  0.80369246    -0.19400
C341        C  0.97607933  0.25875993  0.79705439     0.19800
C342        C  0.00595825  0.25145866  0.75149527     0.01900
C343        C  0.03424765  0.20499443  0.74650411    -0.14200
C344        C  0.03230716  0.16721104  0.78468177    -0.11900
C345        C  0.00300612  0.17471273  0.82942371     0.01400
C346        C  0.97523586  0.22070204  0.83563300    -0.24100
H347        H  0.05536546  0.32086143  0.59424475     0.09400
H348        H  0.05867833  0.25388571  0.65753862     0.13000
H349        H  0.95042892  0.40857150  0.68825236     0.11700
H350        H  0.92368126  0.37623748  0.77204128     0.12900
H351        H  0.92414311  0.30960513  0.83829600     0.11900
H352        H  0.05805366  0.19638340  0.71349988     0.09000
H353        H  0.05447832  0.13211066  0.77947058     0.12300
H354        H  0.95219691  0.22645375  0.87017529     0.14200
C355        C  0.99747115  0.83096886  0.82680549    -0.01300
C356        C  0.02050912  0.84163577  0.77910445    -0.09400
C357        C  0.02213516  0.80448636  0.74028935    -0.18200
C358        C  0.00007995  0.75522702  0.74773508     0.04200
C359        C  0.97514779  0.74510344  0.79562224     0.18400
C360        C  0.97474808  0.78258506  0.83484681    -0.19600
C361        C  0.95054844  0.69779079  0.80390821    -0.20900
C362        C  0.94996948  0.66030831  0.76547285    -0.19400
C363        C  0.97509569  0.66874793  0.71836047     0.19800
C364        C  0.00136037  0.71595598  0.70915905     0.01900
C365        C  0.02830898  0.72155829  0.66197331    -0.14200
C366        C  0.02824772  0.68238657  0.62516624    -0.11900
C367        C  0.00072086  0.63681058  0.63358115     0.01400
C368        C  0.97429970  0.63015230  0.68034909    -0.24100
H369        H  0.03817959  0.87879469  0.77192527     0.09400
H370        H  0.04038782  0.81586593  0.70470439     0.13000
H371        H  0.95606083  0.77435757  0.87142067     0.11700
H372        H  0.93118964  0.68991602  0.84017866     0.12900
H373        H  0.93014923  0.62427031  0.77283079     0.11900
H374        H  0.05057421  0.75531146  0.65261475     0.09000
H375        H  0.04980219  0.68774432  0.58969835     0.12300
H376        H  0.95316102  0.59472355  0.68709590     0.14200
C377        C  0.99943439  0.63496719  0.36604341    -0.01300
C378        C  0.97293733  0.62572521  0.31998007    -0.09400
C379        C  0.97196614  0.66254942  0.28077655    -0.18200
C380        C  0.99651489  0.71078895  0.28693795     0.04200
C381        C  0.02094316  0.72118523  0.33481291     0.18400
C382        C  0.02366916  0.68284551  0.37299412    -0.17700
C383        C  0.04195520  0.76994455  0.34447979    -0.20900
C384        C  0.03955167  0.80857333  0.30734482    -0.19400
C385        C  0.01812397  0.79864828  0.25886888     0.19800
C386        C  0.99713458  0.74928972  0.24760859     0.01900
C387        C  0.97887394  0.74019459  0.19708595    -0.14200
C388        C  0.98066760  0.77876889  0.15965636    -0.11900
C389        C  0.99987926  0.82785164  0.17142742     0.01400
C390        C  0.01838641  0.83756494  0.22122419    -0.24100
H391        H  0.95262584  0.58970073  0.31433493     0.09400
H392        H  0.95047335  0.65265953  0.24668482     0.13000
H393        H  0.04402066  0.69053004  0.40864849     0.11700
H394        H  0.05985015  0.77844750  0.38123575     0.12900
H395        H  0.05563937  0.84610913  0.31618078     0.11900
H396        H  0.96410976  0.70331655  0.18493424     0.09000
H397        H  0.96636131  0.77019694  0.12136950     0.12300
H398        H  0.03415152  0.87518074  0.23040331     0.14200
C399        C  0.99156438  0.17346851  0.17474822    -0.01300
C400        C  0.96128927  0.21762799  0.16763857    -0.09400
C401        C  0.95876834  0.25592630  0.20560896    -0.18200
C402        C  0.98761276  0.25171900  0.25169111     0.04200
C403        C  0.01767581  0.20634829  0.25887732     0.18400
C404        C  0.01883563  0.16763904  0.22091058    -0.19600
C405        C  0.04721115  0.20018947  0.30350750    -0.20900
C406        C  0.04854899  0.23864411  0.34084656    -0.19400
C407        C  0.01999115  0.28402324  0.33475641     0.19800
C408        C  0.98852320  0.29108360  0.29045568     0.01900
C409        C  0.95989921  0.33747050  0.28678319    -0.14200
C410        C  0.96263230  0.37507618  0.32534947    -0.11900
C411        C  0.99408425  0.36799306  0.36853603     0.01400
C412        C  0.02287236  0.32248741  0.37282113    -0.24100
H413        H  0.93914198  0.22241650  0.13259873     0.09400
H414        H  0.93450416  0.28863328  0.19738116     0.13000
H415        H  0.04232556  0.13348029  0.22663802     0.11700
H416        H  0.07004380  0.16563195  0.30926318     0.12900
H417        H  0.07229957  0.23292138  0.37468525     0.11900
H418        H  0.93492643  0.34580424  0.25473940     0.09000
H419        H  0.93988960  0.40995042  0.32156755     0.12300
H420        H  0.04751637  0.31706078  0.40609724     0.14200
loop_ 
_geom_bond_atom_site_label_1 
_geom_bond_atom_site_label_2 
_geom_bond_distance 
_geom_bond_site_symmetry_2 
_ccdc_geom_bond_type 
N1            C6   1.350   1_655  A
N1            C5   1.351   1_655  A
N1           H33   1.042       .  S
N2            C9   1.351       .  A
N2           C10   1.350       .  A
N3            C8   1.353   1_655  A
N3            C7   1.351   1_655  A
N3           H34   1.042       .  S
N4           C11   1.349   1_455  A
N4           C12   1.350   1_455  A
C5           C13   1.387       .  A
C5           C21   1.411       .  A
C6           C22   1.412   1_455  A
C6           C14   1.387       .  A
C7           C15   1.387       .  A
C7           C24   1.414   1_455  A
C8           C23   1.416       .  A
C8           C16   1.387       .  A
C9           C21   1.412   1_655  A
C9           C17   1.386       .  A
C10          C24   1.413       .  A
C10          C18   1.387       .  A
C11          C19   1.386       .  A
C11          C22   1.411       .  A
C12          C20   1.386       .  A
C12          C23   1.411   1_655  A
C13          C14   1.378       .  A
C13          H25   1.082       .  S
C14          H26   1.082       .  S
C15          C16   1.378       .  A
C15          H27   1.082       .  S
C16          H28   1.082       .  S
C17          C18   1.375       .  A
C17          H29   1.082       .  S
C18          H30   1.082       .  S
C19          C20   1.374       .  A
C19          H31   1.082       .  S
C20          H32   1.082       .  S
C21         C333   1.489       .  S
C22         C367   1.486   1_655  S
C23         C377   1.494   1_455  S
C24         C411   1.489       .  S
O35          C46   1.292       .  A
O35         Eu71   2.464       .  S
O36          C47   1.290   1_655  A
O36         Eu70   2.444       .  S
O37          C48   1.290       .  A
O37         Eu43   2.452   1_655  S
O38          C49   1.293       .  A
O38         Eu43   2.467       .  S
O39          C49   1.291   1_565  A
O39         Eu73   2.459   1_565  S
O40          C48   1.292       .  A
O40         Eu72   2.466       .  S
O41          C47   1.292       .  A
O41         Eu43   2.460   1_565  S
O42          C46   1.291       .  A
O42         Eu43   2.456   1_655  S
Eu43         O53   2.345       .  S
Eu43         O45   2.351   1_455  S
Eu43         O44   2.349   1_545  S
Eu43         O51   2.359   1_445  S
O44         Eu73   2.347   1_565  S
O44         Eu70   2.360   1_455  S
O45         Eu71   2.342       .  S
O45         Eu72   2.347       .  S
C46         C399   1.478       .  S
C47         C389   1.477   1_455  S
C48         C323   1.472       .  S
C49         C301   1.483       .  S
H50          O51   0.967       .  S
O51         Eu72   2.352   1_565  S
O51         Eu70   2.355       .  S
H52          O53   0.967       .  S
O53         Eu71   2.363   1_455  S
O53         Eu73   2.356       .  S
O54          C77   1.291       .  A
O54         Eu70   2.456   1_556  S
O55          C78   1.290   1_655  A
O55         Eu71   2.455   1_556  S
O56          C79   1.292       .  A
O56         Eu72   2.459   1_565  S
O57          C80   1.292   1_554  A
O57         Eu73   2.462   1_565  S
O58          C81   1.292       .  A
O58         Eu73   2.463       .  S
O59          C82   1.292   1_554  A
O59         Eu72   2.462       .  S
O60          C83   1.293   1_545  A
O60         Eu74   2.468   1_655  S
O61          C84   1.294   1_545  A
O61         Eu74   2.478       .  S
O62          C83   1.291       .  A
O62         Eu72   2.460   1_566  S
O63          C84   1.289       .  A
O63         Eu73   2.446   1_566  S
O64          C79   1.293       .  A
O64         Eu70   2.466       .  S
O65          C82   1.293       .  A
O65         Eu71   2.466   1_556  S
O66          C81   1.291       .  A
O66         Eu71   2.453   1_455  S
O67          C80   1.292       .  A
O67         Eu70   2.460   1_456  S
O68          C77   1.291   1_455  A
O68         Eu74   2.451   1_565  S
O69          C78   1.290       .  A
O69         Eu74   2.449       .  S
Eu70         O88   2.352   1_654  S
Eu70         O76   2.346   1_554  S
Eu71         O75   2.358   1_654  S
Eu71         O86   2.349   1_554  S
Eu72         O86   2.358   1_554  S
Eu72         O76   2.352   1_544  S
Eu73         O75   2.360   1_554  S
Eu73         O88   2.357   1_544  S
Eu74         O75   2.350       .  S
Eu74         O86   2.355   1_455  S
Eu74         O88   2.349   1_545  S
Eu74         O76   2.357   1_445  S
C77         C355   1.476       .  S
C78         C345   1.472       .  S
C79         C169   1.487       .  S
C80         C201   1.477       .  S
C81         C235   1.472       .  S
C82         C191   1.482       .  S
C83         C257   1.471       .  S
C84         C267   1.475       .  S
H85          O86   0.968       .  S
H87          O88   0.966       .  S
N89          C94   1.351   1_565  A
N89          C93   1.351   1_565  A
N89         H121   1.041       .  S
N90          C97   1.352   1_545  A
N90          C98   1.351       .  A
N91          C96   1.355       .  A
N91          C95   1.354       .  A
N91         H122   1.039   1_545  S
N92          C99   1.352       .  A
N92         C100   1.353       .  A
C93         C101   1.386       .  A
C93         C109   1.409   1_545  A
C94         C110   1.412   1_545  A
C94         C102   1.388       .  A
C95         C103   1.387       .  A
C95         C112   1.417       .  A
C96         C111   1.420       .  A
C96         C104   1.388       .  A
C97         C109   1.410       .  A
C97         C105   1.385       .  A
C98         C112   1.414       .  A
C98         C106   1.387   1_545  A
C99         C107   1.385       .  A
C99         C110   1.413       .  A
C100        C108   1.387       .  A
C100        C111   1.417   1_565  A
C101        C102   1.374       .  A
C101        H113   1.082       .  S
C102        H114   1.082       .  S
C103        C104   1.378       .  A
C103        H115   1.082       .  S
C104        H116   1.082       .  S
C105        C106   1.374       .  A
C105        H117   1.082       .  S
C106        H118   1.082       .  S
C107        C108   1.373       .  A
C107        H119   1.082       .  S
C108        H120   1.082       .  S
C109        C245   1.483       .  S
C110        C279   1.488       .  S
C111        C289   1.497       .  S
C112        C311   1.487       .  S
N123        C128   1.353       .  A
N123        C127   1.354       .  A
N123        H155   1.042   1_556  S
N124        C131   1.353       .  A
N124        C132   1.351       .  A
N125        C130   1.351       .  A
N125        C129   1.352       .  A
N125        H156   1.041   1_556  S
N126        C133   1.351       .  A
N126        C134   1.352       .  A
C127        C135   1.388       .  A
C127        C143   1.419   1_556  A
C128        C144   1.414       .  A
C128        C136   1.386       .  A
C129        C137   1.388       .  A
C129        C146   1.415   1_556  A
C130        C145   1.413       .  A
C130        C138   1.386       .  A
C131        C143   1.417       .  A
C131        C139   1.387       .  A
C132        C146   1.414       .  A
C132        C140   1.385       .  A
C133        C141   1.387   1_556  A
C133        C144   1.413       .  A
C134        C142   1.386   1_556  A
C134        C145   1.413       .  A
C135        C136   1.378       .  A
C135        H147   1.082       .  S
C136        H148   1.082       .  S
C137        C138   1.378       .  A
C137        H149   1.082       .  S
C138        H150   1.083       .  S
C139        C140   1.376       .  A
C139        H151   1.082       .  S
C140        H152   1.082       .  S
C141        C142   1.374       .  A
C141        H153   1.082       .  S
C142        H154   1.082       .  S
C143        C157   1.504       .  S
C144        C213   1.490       .  S
C145        C223   1.490       .  S
C146        C179   1.492   1_554  S
C157        C158   1.404       .  A
C157        C162   1.405   1_554  A
C158        C159   1.399       .  A
C158        H171   1.083       .  S
C159        C160   1.415       .  A
C159        H172   1.078       .  S
C160        C166   1.433       .  A
C160        C161   1.422   1_554  A
C161        C163   1.400       .  A
C161        C162   1.407       .  A
C162        H173   1.084       .  S
C163        C164   1.391       .  A
C163        H174   1.084       .  S
C164        C165   1.400       .  A
C164        H175   1.084       .  S
C165        C166   1.423   1_556  A
C165        C170   1.407       .  A
C166        C167   1.415       .  A
C167        C168   1.398       .  A
C167        H176   1.078       .  S
C168        C169   1.403       .  A
C168        H177   1.083       .  S
C169        C170   1.404   1_554  A
C170        H178   1.084       .  S
C179        C180   1.399       .  A
C179        C184   1.403   1_556  A
C180        C181   1.395       .  A
C180        H193   1.084       .  S
C181        C182   1.414       .  A
C181        H194   1.077       .  S
C182        C188   1.431       .  A
C182        C183   1.423   1_556  A
C183        C185   1.400       .  A
C183        C184   1.409       .  A
C184        H195   1.085       .  S
C185        C186   1.392       .  A
C185        H196   1.084       .  S
C186        C187   1.401       .  A
C186        H197   1.084       .  S
C187        C188   1.422   1_554  A
C187        C192   1.408       .  A
C188        C189   1.415       .  A
C189        C190   1.397       .  A
C189        H198   1.077       .  S
C190        C191   1.400       .  A
C190        H199   1.084       .  S
C191        C192   1.403   1_556  A
C192        H200   1.085       .  S
C201        C202   1.400       .  A
C201        C206   1.401   1_556  A
C202        C203   1.397       .  A
C202        H215   1.084       .  S
C203        C204   1.415       .  A
C203        H216   1.078       .  S
C204        C210   1.430       .  A
C204        C205   1.423   1_556  A
C205        C207   1.400       .  A
C205        C206   1.405       .  A
C206        H217   1.085       .  S
C207        C208   1.390       .  A
C207        H218   1.084       .  S
C208        C209   1.399       .  A
C208        H219   1.084       .  S
C209        C210   1.422   1_554  A
C209        C214   1.405       .  A
C210        C211   1.415       .  A
C211        C212   1.397       .  A
C211        H220   1.078       .  S
C212        C213   1.400       .  A
C212        H221   1.083       .  S
C213        C214   1.401   1_556  A
C214        H222   1.085       .  S
C223        C224   1.399   1_556  A
C223        C228   1.401       .  A
C224        C225   1.394       .  A
C224        H237   1.084       .  S
C225        C226   1.414   1_554  A
C225        H238   1.077       .  S
C226        C232   1.429       .  A
C226        C227   1.424       .  A
C227        C229   1.399       .  A
C227        C228   1.406       .  A
C228        H239   1.085       .  S
C229        C230   1.390       .  A
C229        H240   1.084       .  S
C230        C231   1.399       .  A
C230        H241   1.084       .  S
C231        C232   1.423       .  A
C231        C236   1.404       .  A
C232        C233   1.416   1_556  A
C233        C234   1.396       .  A
C233        H242   1.077       .  S
C234        C235   1.398       .  A
C234        H243   1.084       .  S
C235        C236   1.400   1_554  A
C236        H244   1.085       .  S
C245        C246   1.398       .  A
C245        C250   1.397   1_565  A
C246        C247   1.397       .  A
C246        H259   1.084       .  S
C247        C248   1.417       .  A
C247        H260   1.077       .  S
C248        C254   1.431       .  A
C248        C249   1.424   1_565  A
C249        C251   1.398       .  A
C249        C250   1.404       .  A
C250        H261   1.085       .  S
C251        C252   1.389       .  A
C251        H262   1.084       .  S
C252        C253   1.399       .  A
C252        H263   1.084       .  S
C253        C254   1.424   1_545  A
C253        C258   1.406       .  A
C254        C255   1.416       .  A
C255        C256   1.397       .  A
C255        H264   1.077       .  S
C256        C257   1.398       .  A
C256        H265   1.084       .  S
C257        C258   1.398   1_565  A
C258        H266   1.085       .  S
C267        C268   1.401       .  A
C267        C272   1.397   1_565  A
C268        C269   1.399       .  A
C268        H281   1.084       .  S
C269        C270   1.416       .  A
C269        H282   1.078       .  S
C270        C276   1.431       .  A
C270        C271   1.424   1_565  A
C271        C273   1.398       .  A
C271        C272   1.404       .  A
C272        H283   1.085       .  S
C273        C274   1.387       .  A
C273        H284   1.084       .  S
C274        C275   1.398       .  A
C274        H285   1.084       .  S
C275        C276   1.423   1_545  A
C275        C280   1.402       .  A
C276        C277   1.417       .  A
C277        C278   1.399       .  A
C277        H286   1.078       .  S
C278        C279   1.401       .  A
C278        H287   1.084       .  S
C279        C280   1.398   1_565  A
C280        H288   1.085       .  S
C289        C290   1.401       .  A
C289        C294   1.403   1_545  A
C290        C291   1.397       .  A
C290        H303   1.083       .  S
C291        C292   1.416       .  A
C291        H304   1.077       .  S
C292        C298   1.432       .  A
C292        C293   1.423   1_545  A
C293        C295   1.400       .  A
C293        C294   1.408       .  A
C294        H305   1.084       .  S
C295        C296   1.392       .  A
C295        H306   1.084       .  S
C296        C297   1.400       .  A
C296        H307   1.084       .  S
C297        C298   1.423   1_565  A
C297        C302   1.410       .  A
C298        C299   1.415       .  A
C299        C300   1.396       .  A
C299        H308   1.077       .  S
C300        C301   1.400       .  A
C300        H309   1.084       .  S
C301        C302   1.404   1_545  A
C302        H310   1.085       .  S
C311        C312   1.400       .  A
C311        C316   1.397   1_545  A
C312        C313   1.400       .  A
C312        H325   1.083       .  S
C313        C314   1.417       .  A
C313        H326   1.078       .  S
C314        C320   1.432       .  A
C314        C315   1.423   1_545  A
C315        C317   1.398       .  A
C315        C316   1.402       .  A
C316        H327   1.085       .  S
C317        C318   1.387       .  A
C317        H328   1.084       .  S
C318        C319   1.398       .  A
C318        H329   1.084       .  S
C319        C320   1.424   1_565  A
C319        C324   1.403       .  A
C320        C321   1.416       .  A
C321        C322   1.399       .  A
C321        H330   1.078       .  S
C322        C323   1.400       .  A
C322        H331   1.084       .  S
C323        C324   1.396   1_545  A
C324        H332   1.085       .  S
C333        C334   1.398       .  A
C333        C338   1.402   1_455  A
C334        C335   1.393       .  A
C334        H347   1.083       .  S
C335        C336   1.414       .  A
C335        H348   1.076       .  S
C336        C342   1.428       .  A
C336        C337   1.423   1_455  A
C337        C339   1.400       .  A
C337        C338   1.406       .  A
C338        H349   1.085       .  S
C339        C340   1.391       .  A
C339        H350   1.084       .  S
C340        C341   1.400       .  A
C340        H351   1.084       .  S
C341        C342   1.423   1_655  A
C341        C346   1.405       .  A
C342        C343   1.415       .  A
C343        C344   1.393       .  A
C343        H352   1.076       .  S
C344        C345   1.398       .  A
C344        H353   1.084       .  S
C345        C346   1.401   1_455  A
C346        H354   1.085       .  S
C355        C356   1.399   1_655  A
C355        C360   1.402       .  A
C356        C357   1.392       .  A
C356        H369   1.083       .  S
C357        C358   1.413       .  A
C357        H370   1.077       .  S
C358        C364   1.426       .  A
C358        C359   1.422   1_455  A
C359        C361   1.400       .  A
C359        C360   1.405       .  A
C360        H371   1.085       .  S
C361        C362   1.391       .  A
C361        H372   1.084       .  S
C362        C363   1.400       .  A
C362        H373   1.084       .  S
C363        C364   1.422   1_655  A
C363        C368   1.403       .  A
C364        C365   1.414       .  A
C365        C366   1.392       .  A
C365        H374   1.077       .  S
C366        C367   1.399       .  A
C366        H375   1.084       .  S
C367        C368   1.401   1_455  A
C368        H376   1.085       .  S
C377        C378   1.400       .  A
C377        C382   1.404   1_655  A
C378        C379   1.395       .  A
C378        H391   1.083       .  S
C379        C380   1.414       .  A
C379        H392   1.078       .  S
C380        C386   1.427       .  A
C380        C381   1.421   1_655  A
C381        C383   1.400       .  A
C381        C382   1.405       .  A
C382        H393   1.084       .  S
C383        C384   1.391       .  A
C383        H394   1.084       .  S
C384        C385   1.399       .  A
C384        H395   1.084       .  S
C385        C386   1.422   1_455  A
C385        C390   1.404       .  A
C386        C387   1.414       .  A
C387        C388   1.394       .  A
C387        H396   1.078       .  S
C388        C389   1.401       .  A
C388        H397   1.084       .  S
C389        C390   1.401   1_655  A
C390        H398   1.085       .  S
C399        C400   1.400       .  A
C399        C404   1.400   1_655  A
C400        C401   1.398       .  A
C400        H413   1.084       .  S
C401        C402   1.416       .  A
C401        H414   1.077       .  S
C402        C408   1.431       .  A
C402        C403   1.423   1_655  A
C403        C405   1.399       .  A
C403        C404   1.405       .  A
C404        H415   1.085       .  S
C405        C406   1.389       .  A
C405        H416   1.084       .  S
C406        C407   1.399       .  A
C406        H417   1.084       .  S
C407        C408   1.423   1_455  A
C407        C412   1.404       .  A
C408        C409   1.416       .  A
C409        C410   1.397       .  A
C409        H418   1.077       .  S
C410        C411   1.400       .  A
C410        H419   1.084       .  S
C411        C412   1.400   1_655  A
C412        H420   1.085       .  S
