geometry optimzed in LAMMPS
_audit_creation_date              2020-11-30 
_audit_creation_method            'lammps2cif' 
_symmetry_space_group_name_H-M    'P1' 
_symmetry_Int_Tables_number       1 
_symmetry_cell_setting            triclinic 
loop_ 
_symmetry_equiv_pos_as_xyz 
  x,y,z 
_cell_length_a                    36.23964459 
_cell_length_b                    35.93048655167444 
_cell_length_c                    35.60640465650713 
_cell_angle_alpha                 89.6106219356941 
_cell_angle_beta                  91.66220175384662 
_cell_angle_gamma                 90.94148854564148 
loop_ 
_atom_site_label 
_atom_site_type_symbol 
_atom_site_fract_x 
_atom_site_fract_y 
_atom_site_fract_z 
_atom_site_charge 
C1          C  0.31056864  0.29998248  0.31349158     0.01200
C2          C  0.44393308  0.04799686  0.30840076     0.01200
C3          C  0.04323813  0.30627791  0.45928627     0.01200
C4          C  0.19470037  0.19626085  0.20122837     0.01200
C5          C  0.31200572  0.43830349  0.04782598     0.01200
C6          C  0.44023447  0.20256289  0.06003129     0.01200
C7          C  0.20254972  0.04882104  0.45177745     0.01200
C8          C  0.04636685  0.44789260  0.19528953     0.01200
O9          O  0.04764445  0.44113757  0.45163141    -0.74800
C10         C  0.46861894  0.04273204  0.41516193     0.86200
O11         O  0.07226185  0.06150861  0.01008191    -0.75900
O12         O  0.44922693  0.09027007  0.98827777    -0.77400
O13         O  0.42762915  0.45741184  0.02036790    -0.77200
O14         O  0.01233457  0.41610298  0.49572576    -0.75800
Zn15       Zn  0.03975657  0.49600018  0.45375558     1.55700
O16         O  0.41500873  0.51773722  0.01667881    -0.77200
Cd17       Cd  0.48502509  0.45966728  0.02119346     1.59700
Cd18       Cd  0.02141078  0.05216395  0.03452784     1.59600
O19         O  0.01505752  0.46858714  0.07708551    -0.77200
O20         O  0.49710531  0.51142754  0.49595422    -1.87700
Cd21       Cd  0.46205735  0.04360222  0.50013935     1.59900
O22         O  0.03243183  0.02986690  0.08769189    -0.77200
O23         O  0.45117194  0.05146099  0.44411611    -0.75800
C24         C  0.10029195  0.04431195  0.48442706     0.86700
C25         C  0.03468304  0.41297234  0.46887458     0.86400
O26         O  0.49948228  0.02587449  0.41751445    -0.74800
C27         C  0.40509448  0.48421537  0.02210105     0.87200
O28         O  0.08656898  0.02015881  0.46185558    -0.74900
C29         C  0.03088153  0.49449536  0.09646564     0.87300
C30         C  0.46632693  0.11032990  0.01245338     0.87600
O31         O  0.99370586  0.10316455  0.03793141    -0.77300
O32         O  0.15677795  0.49226734  0.23566162    -0.74800
C33         C  0.23442260  0.01537755  0.35276735     0.86200
O34         O  0.25723892  0.07914505  0.20638182    -0.75900
O35         O  0.33129001  0.00304051  0.29106977    -0.77400
O36         O  0.24943391  0.39982249  0.24547745    -0.77200
O37         O  0.17849494  0.44216802  0.20785793    -0.75800
Zn38       Zn  0.20891978  0.03116031  0.27122681     1.55700
O39         O  0.28958658  0.42011138  0.28963889    -0.77200
Cd40       Cd  0.23339814  0.44564268  0.21630804     1.59700
Cd41       Cd  0.27758555  0.02665000  0.21470920     1.59600
O42         O  0.25163138  0.44165925  0.16323231    -0.77200
O43         O  0.24629950  0.99869980  0.25071357    -1.87700
Cd44       Cd  0.28326285  0.47841109  0.28441090     1.59900
O45         O  0.28171210  0.00008119  0.16333519    -0.77200
O46         O  0.25825231  0.99201147  0.34268364    -0.75800
C47         C  0.23275431  0.09759266  0.22270270     0.86700
C48         C  0.15189253  0.46255354  0.21611278     0.86400
O49         O  0.21448726  0.03341020  0.32887368    -0.74800
C50         C  0.27216719  0.39369541  0.27246512     0.87200
O51         O  0.21306178  0.08336790  0.24846596    -0.74900
C52         C  0.27010656  0.46303657  0.14223840     0.87300
C53         C  0.34606143  0.02520932  0.26752431     0.87600
O54         O  0.32944364  0.03533415  0.23735243    -0.77300
O55         O  0.33354678  0.23283541  0.00749267    -0.74800
C56         C  0.26162533  0.27047344  0.40555529     0.86200
O57         O  0.25763623  0.33232246  0.03308843    -0.75900
O58         O  0.15502495  0.26683322  0.46963386    -0.77400
O59         O  0.22628244  0.15744625  0.50110790    -0.77200
O60         O  0.30460111  0.18976543  0.04167684    -0.75800
Zn61       Zn  0.28599352  0.26553612  0.48686966     1.55700
O62         O  0.19698357  0.18487120  0.45234366    -0.77200
Cd63       Cd  0.24846672  0.19973842  0.02929932     1.59700
Cd64       Cd  0.22344622  0.28616302  0.03340907     1.59600
O65         O  0.22420660  0.20499324  0.08203345    -0.77200
O66         O  0.23896938  0.24850035  0.50605862    -1.87700
Cd67       Cd  0.20510284  0.24141031  0.46160322     1.59900
O68         O  0.21883496  0.26657366  0.08734165    -0.77200
O69         O  0.22804483  0.26471169  0.41391736    -0.75800
C70         C  0.28668186  0.33944939  0.01484391     0.86700
C71         C  0.33430848  0.20605703  0.03140345     0.86400
O72         O  0.28788429  0.26641156  0.42981337    -0.74800
C73         C  0.20776618  0.15578012  0.46994190     0.87200
O74         O  0.30152726  0.31557973  0.99421967    -0.74900
C75         C  0.21712842  0.23391421  0.10124126     0.87300
C76         C  0.14385022  0.28890524  0.49468227     0.87600
O77         O  0.17043801  0.30233408  0.01694944    -0.77300
O78         O  0.99791956  0.33944379  0.26504881    -0.74800
C79         C  0.40588862  0.26122489  0.28769827     0.86200
O80         O  0.03476404  0.23587517  0.34489884    -0.75900
O81         O  0.46517156  0.16052981  0.26411578    -0.77400
O82         O  0.50502064  0.25324143  0.17099051    -0.77200
O83         O  0.03454684  0.32669830  0.21754603    -0.75800
Zn84       Zn  0.48629202  0.28906587  0.29354672     1.55700
O85         O  0.45666128  0.21677255  0.18472932    -0.77200
Cd86       Cd  0.03264989  0.26830670  0.21743860     1.59700
Cd87       Cd  0.03124625  0.21616949  0.29129604     1.59600
O88         O  0.08602946  0.24625679  0.22120907    -0.77200
O89         O  0.50327054  0.24741262  0.26387577    -1.87700
Cd90       Cd  0.46119089  0.21516542  0.24409170     1.59900
O91         O  0.08436510  0.21093307  0.27282779    -0.77200
O92         O  0.41343562  0.23371994  0.26707369    -0.75800
C93         C  0.02207746  0.26436462  0.36065721     0.86700
C94         C  0.01831216  0.35001131  0.23817957     0.86400
O95         O  0.43034824  0.28517621  0.29857360    -0.74800
C96         C  0.47673771  0.23377972  0.16086079     0.87200
O97         O  0.00178616  0.28774911  0.34284846    -0.74900
C98         C  0.10136427  0.22389323  0.24472658     0.87300
C99         C  0.48717199  0.14524700  0.28803141     0.87600
O100        O  0.00837273  0.16373041  0.29458830    -0.77300
C101        C  0.11546150  0.44997506  0.20077181    -0.12700
C102        C  0.08318293  0.46403191  0.21020957    -0.27900
H103        H  0.11527708  0.42688223  0.18119669     0.16300
H104        H  0.08345709  0.48681640  0.23023094     0.16900
C105        C  0.02191067  0.39065167  0.23103396    -0.12700
C106        C  0.04371053  0.40597898  0.20461822    -0.27900
H107        H  0.00547483  0.40832780  0.24832799     0.16300
H108        H  0.06090436  0.38758143  0.18880741     0.16900
C109        C  0.04187928  0.48764314  0.13643033    -0.12700
C110        C  0.04101971  0.45362036  0.15285332    -0.27900
H111        H  0.04946243  0.51170397  0.15347839     0.12700
H112        H  0.03424900  0.42951693  0.13552424     0.16900
C113        C  0.19812152  0.11910222  0.45333938    -0.12700
C114        C  0.21348760  0.08748689  0.46622313    -0.27900
H115        H  0.17775094  0.11795219  0.43036892     0.16300
H116        H  0.23437753  0.08962062  0.48875009     0.16900
C117        C  0.20898441  0.04612019  0.40936488    -0.12700
C118        C  0.23056756  0.02045691  0.39366876    -0.27900
H119        H  0.19356020  0.06479417  0.39087642     0.16300
H120        H  0.24631576  0.00140632  0.41131622     0.16900
C121        C  0.13909397  0.05677712  0.48028419    -0.12700
C122        C  0.16221949  0.03848643  0.45797660    -0.27900
H123        H  0.14883434  0.08042392  0.49677921     0.16300
H124        H  0.15206569  0.01330209  0.44407162     0.16900
C125        C  0.44235471  0.20982090  0.10274045    -0.12700
C126        C  0.46902367  0.23120299  0.11976758    -0.27900
H127        H  0.42326652  0.19435635  0.12018560     0.16300
H128        H  0.48852550  0.24657656  0.10284036     0.16900
C129        C  0.40233095  0.21258016  0.04269543    -0.12700
C130        C  0.37030599  0.19411450  0.04892319    -0.27900
H131        H  0.40127024  0.23606934  0.02323700     0.16300
H132        H  0.37035343  0.17046743  0.06808463     0.16900
C133        C  0.45220193  0.14784430  0.01880730    -0.12700
C134        C  0.45004626  0.16216462  0.05345977    -0.27900
H135        H  0.44257353  0.16386582  0.99456202     0.16300
H136        H  0.45797196  0.14486848  0.07747882     0.16900
C137        C  0.28675440  0.45843804  0.02183008    -0.14800
C138        C  0.26487403  0.47659860  0.00378153     0.09200
C139        C  0.24618864  0.00235030  0.49161059     0.11100
C140        C  0.22529051  0.02197113  0.47371836    -0.15700
C141        C  0.30752150  0.45387391  0.08686847    -0.12700
C142        C  0.27509528  0.45084228  0.10384522    -0.27900
H143        H  0.33096106  0.46688351  0.10172771     0.16300
H144        H  0.25206798  0.43616655  0.09001844     0.16900
C145        C  0.30297910  0.37687117  0.01639655    -0.12700
C146        C  0.30125164  0.39743217  0.04746722    -0.27900
H147        H  0.31559505  0.38819621  0.99137617     0.16300
H148        H  0.29050566  0.38451561  0.07272151     0.16900
C149        C  0.36641631  0.47757279  0.03145898    -0.12700
C150        C  0.35165583  0.44350973  0.03613698    -0.27900
H151        H  0.34940027  0.50180745  0.03539866     0.16300
H152        H  0.36850689  0.41921954  0.03182823     0.16900
C153        C  0.22855380  0.13678422  0.21133684    -0.12700
C154        C  0.19721946  0.15596172  0.21475834    -0.27900
H155        H  0.25192188  0.15012254  0.19791962     0.16300
H156        H  0.17328918  0.14222271  0.22673364     0.16900
C157        C  0.15587009  0.21111034  0.20629676    -0.12700
C158        C  0.13981153  0.21181952  0.23992567    -0.27900
H159        H  0.14025192  0.22083923  0.18170467     0.16300
H160        H  0.15459330  0.20072301  0.26440926     0.16900
C161        C  0.20422497  0.19830079  0.15969976    -0.12700
C162        C  0.20664194  0.23078363  0.14097117    -0.27900
H163        H  0.20958135  0.17272562  0.14478003     0.16300
H164        H  0.20121432  0.25642354  0.15572555     0.16900
C165        C  0.02540205  0.27867005  0.48385478    -0.14800
C166        C  0.00990011  0.25749277  0.50466101     0.09200
C167        C  0.48947099  0.24236319  0.02102450     0.11100
C168        C  0.46792678  0.22513618  0.03980325    -0.15700
C169        C  0.08471416  0.29985425  0.46063845    -0.12700
C170        C  0.10539412  0.30192763  0.49257177    -0.27900
H171        H  0.09788924  0.29152180  0.43502753     0.16300
H172        H  0.09321150  0.31177782  0.51812336     0.16900
C173        C  0.02777772  0.30131868  0.41932402    -0.12700
C174        C  0.03231581  0.26946481  0.40060837    -0.27900
H175        H  0.01397694  0.32434493  0.40515018     0.16300
H176        H  0.04651277  0.24666865  0.41475380     0.16900
C177        C  0.04591302  0.37590188  0.45660112    -0.12700
C178        C  0.03410953  0.34462369  0.47346870    -0.27900
H179        H  0.06362126  0.37409080  0.43257606     0.16300
H180        H  0.01660346  0.34683053  0.49767251     0.16900
C181        C  0.01738343  0.46868623  0.21354814    -0.14800
C182        C  0.99702541  0.48765753  0.23083911     0.09200
C183        C  0.47487356  0.00855360  0.25533143     0.11100
C184        C  0.46207305  0.02697289  0.27938945    -0.15700
C185        C  0.44847291  0.08932899  0.29964465    -0.12700
C186        C  0.48193018  0.10593712  0.29872790    -0.27900
H187        H  0.42410993  0.10572916  0.29319586     0.16300
H188        H  0.50626440  0.09030622  0.30713328     0.16900
C189        C  0.38368024  0.03994624  0.27404480    -0.12700
C190        C  0.40347723  0.03600420  0.30640277    -0.27900
H191        H  0.39625572  0.05424528  0.25049858     0.16300
H192        H  0.39115553  0.02222474  0.33036872     0.16900
C193        C  0.46212871  0.03799038  0.34608161    -0.12700
C194        C  0.45156243  0.05273495  0.37839762    -0.27900
H195        H  0.48468317  0.01832088  0.34690934     0.16300
H196        H  0.42855158  0.07177856  0.37795128     0.16900
C197        C  0.28849189  0.27570223  0.28708823    -0.14800
C198        C  0.26862903  0.25715660  0.26643255     0.09200
C199        C  0.24366293  0.23659045  0.24296832     0.11100
C200        C  0.22169039  0.21899185  0.22370898    -0.15700
C201        C  0.30065438  0.34119931  0.30924891    -0.12700
C202        C  0.27786307  0.35415450  0.28181194    -0.27900
H203        H  0.31510034  0.36105435  0.32755373     0.16300
H204        H  0.26315667  0.33488405  0.26323736     0.16900
C205        C  0.36752655  0.26413098  0.29971093    -0.12700
C206        C  0.35133274  0.29698127  0.30485114    -0.27900
H207        H  0.35126158  0.23854832  0.30167002     0.16300
H208        H  0.36757509  0.32232857  0.30054757     0.16900
C209        C  0.30378003  0.28686354  0.35355017    -0.12700
C210        C  0.26943003  0.28320828  0.36690762    -0.27900
H211        H  0.32729306  0.27944149  0.37157544     0.16300
H212        H  0.24591942  0.28989147  0.34858343     0.16900
C213        C  0.30603475  0.29682033  0.80345487     0.01200
C214        C  0.43123225  0.06792521  0.80245110     0.01200
C215        C  0.05053346  0.31573640  0.95088727     0.01200
C216        C  0.18682946  0.18581227  0.70427348     0.01200
C217        C  0.30462721  0.44211670  0.55136810     0.01200
C218        C  0.43786023  0.20737536  0.55443250     0.01200
C219        C  0.19026555  0.04918972  0.94695051     0.01200
C220        C  0.05482374  0.44078785  0.69149128     0.01200
O221        O  0.03795970  0.45117384  0.94398802    -0.74800
C222        C  0.47299753  0.02616122  0.89448588     0.86200
O223        O  0.08144659  0.05782224  0.51063286    -0.75900
O224        O  0.46290659  0.09487295  0.52458507    -0.77400
O225        O  0.42069470  0.45888499  0.51836979    -0.77200
O226        O  0.01298680  0.42256512  0.99322997    -0.75800
Zn227      Zn  0.02862296  0.50599526  0.94994366     1.55700
O228        O  0.40715211  0.51879852  0.51218268    -0.77200
Cd229      Cd  0.47837357  0.46320988  0.51578777     1.59700
Cd230      Cd  0.02906332  0.04260904  0.52907653     1.59600
O231        O  0.01862850  0.46317135  0.57603583    -0.77200
O232        O  0.50535385  0.50882140  0.00514984    -1.87700
Cd233      Cd  0.45230336  0.03500684  0.97539546     1.59900
O234        O  0.03787216  0.01821574  0.58084600    -0.77200
O235        O  0.44826604  0.03247597  0.91816533    -0.75800
C236        C  0.08808622  0.04689459  0.98233755     0.86700
C237        C  0.03122376  0.42175865  0.96291320     0.86400
O238        O  0.50496042  0.01491930  0.90424684    -0.74800
C239        C  0.39791496  0.48554571  0.52010235     0.87200
O240        O  0.07159170  0.02269480  0.96131223    -0.74900
C241        C  0.03663720  0.48812977  0.59461463     0.87300
C242        C  0.48695666  0.11282384  0.54408208     0.87600
O243        O  0.99612850  0.08934183  0.53405646    -0.77300
O244        O  0.16116516  0.50767571  0.75092959    -0.74800
C245        C  0.20855306  0.00915756  0.84770084     0.86200
O246        O  0.25646498  0.07132462  0.70959155    -0.75900
O247        O  0.31909985  0.99532970  0.80343474    -0.77400
O248        O  0.24330247  0.40344725  0.74707025    -0.77200
O249        O  0.17135691  0.45512362  0.72052167    -0.75800
Zn250      Zn  0.19729735  0.01823278  0.76175386     1.55700
O251        O  0.28622939  0.41851702  0.79091487    -0.77200
Cd252      Cd  0.22768022  0.45260865  0.72226388     1.59700
Cd253      Cd  0.27780365  0.01943283  0.72015857     1.59600
O254        O  0.24205968  0.45066411  0.66706557    -0.77200
O255        O  0.24187032  0.99030513  0.75129207    -1.87700
Cd256      Cd  0.28392530  0.47741510  0.79093173     1.59900
O257        O  0.28786760  0.99410912  0.66809521    -0.77200
O258        O  0.23681601  0.98887848  0.84444907    -0.75800
C259        C  0.22707724  0.08704886  0.71945377     0.86700
C260        C  0.14942188  0.47917343  0.73266888     0.86400
O261        O  0.19124371  0.02286921  0.81912049    -0.74800
C262        C  0.26708838  0.39423298  0.77227076     0.87200
O263        O  0.20282898  0.07023780  0.73905874    -0.74900
C264        C  0.26582606  0.46782168  0.64762896     0.87300
C265        C  0.33820178  0.01686873  0.78278097     0.87600
O266        O  0.32658938  0.02855652  0.75074302    -0.77300
O267        O  0.32839410  0.23777853  0.51176747    -0.74800
C268        C  0.26593691  0.26901017  0.90040538     0.86200
O269        O  0.25042529  0.33358965  0.54076652    -0.75900
O270        O  0.15974485  0.27109428  0.96388015    -0.77400
O271        O  0.22391983  0.15654918  0.99688362    -0.77200
O272        O  0.30208327  0.19469621  0.54806076    -0.75800
Zn273      Zn  0.29199441  0.26230018  0.98118831     1.55700
O274        O  0.19588099  0.18580677  0.94846417    -0.77200
Cd275      Cd  0.24569459  0.20122310  0.53504978     1.59700
Cd276      Cd  0.21762117  0.28564863  0.54042367     1.59600
O277        O  0.21815950  0.20283634  0.58645427    -0.77200
O278        O  0.24372391  0.24738965  0.00020632    -1.87700
Cd279      Cd  0.20829329  0.24186438  0.95689081     1.59900
O280        O  0.21122215  0.26390817  0.59411319    -0.77200
O281        O  0.23258089  0.26365959  0.90972891    -0.75800
C282        C  0.27838689  0.34203323  0.52120786     0.86700
C283        C  0.33079159  0.21158958  0.53609560     0.86400
O284        O  0.29302638  0.26388001  0.92356910    -0.74800
C285        C  0.20434403  0.15603029  0.96624435     0.87200
O286        O  0.29322446  0.31887178  0.49981329    -0.74900
C287        C  0.20919830  0.23056196  0.60650343     0.87300
C288        C  0.14951089  0.29369418  0.98890605     0.87600
O289        O  0.16445145  0.29916244  0.52244233    -0.77300
O290        O  0.99319333  0.34018122  0.76252180    -0.74800
C291        C  0.41037816  0.29537321  0.78123698     0.86200
O292        O  0.04574152  0.24373848  0.83567622    -0.75900
O293        O  0.44288479  0.18862782  0.74332126    -0.77400
O294        O  0.50939452  0.25986568  0.66010283    -0.77200
O295        O  0.02687891  0.32506247  0.71379026    -0.75800
Zn296      Zn  0.49388765  0.30246792  0.78538227     1.55700
O297        O  0.45128643  0.24383086  0.67278355    -0.77200
Cd298      Cd  0.01642923  0.26906842  0.71010245     1.59700
Cd299      Cd  0.03415688  0.21882629  0.78404437     1.59600
O300        O  0.06487469  0.24345620  0.69739030    -0.77200
O301        O  0.50164389  0.26023419  0.75316219    -1.87700
Cd302      Cd  0.45296016  0.24332476  0.73086996     1.59900
O303        O  0.08087771  0.21430117  0.75083841    -0.77200
O304        O  0.41043681  0.27163670  0.75472621    -0.75800
C305        C  0.03075026  0.27034838  0.85296964     0.86700
C306        C  0.01370067  0.34930667  0.73527742     0.86400
O307        O  0.44011891  0.30952258  0.79497160    -0.74800
C308        C  0.47710473  0.24872772  0.64965814     0.87200
O309        O  0.00474564  0.28945565  0.83801628    -0.74900
C310        C  0.08743063  0.22409342  0.71696705     0.87300
C311        C  0.45863466  0.16514547  0.76484911     0.87600
O312        O  0.01426747  0.16503276  0.79536216    -0.77300
C313        C  0.10935118  0.47410127  0.72504210    -0.12700
C314        C  0.09572431  0.44816612  0.70059930    -0.27900
H315        H  0.09112144  0.49256021  0.73938682     0.16300
H316        H  0.11498168  0.43069140  0.68623805     0.16900
C317        C  0.02207431  0.38907374  0.72831640    -0.12700
C318        C  0.04597934  0.40038397  0.70183394    -0.27900
H319        H  0.00806126  0.40908471  0.74529600     0.16300
H320        H  0.06032502  0.37937847  0.68625846     0.16900
C321        C  0.05032838  0.48013060  0.63320294    -0.12700
C322        C  0.04664487  0.44646706  0.64975531    -0.27900
H323        H  0.06221654  0.50316611  0.64935687     0.12700
H324        H  0.03504707  0.42337516  0.63344366     0.16900
C325        C  0.19079928  0.12005933  0.95012185    -0.12700
C326        C  0.20282267  0.08701272  0.96308070    -0.27900
H327        H  0.17113040  0.12070827  0.92651933     0.16300
H328        H  0.22314531  0.08733133  0.98622391     0.16900
C329        C  0.19849504  0.04680932  0.90499195    -0.12700
C330        C  0.19478117  0.01448116  0.88592607    -0.27900
H331        H  0.20964497  0.07110035  0.89059887     0.16300
H332        H  0.18593157  0.98952852  0.90075463     0.16900
C333        C  0.12680366  0.05873474  0.97527036    -0.12700
C334        C  0.14933752  0.03968852  0.95300255    -0.27900
H335        H  0.13739317  0.08268139  0.99078326     0.16300
H336        H  0.13838754  0.01441250  0.93996062     0.16900
C337        C  0.44298972  0.21810671  0.59595367    -0.12700
C338        C  0.47040894  0.24096394  0.60942080    -0.27900
H339        H  0.42413636  0.20541127  0.61567311     0.16300
H340        H  0.49082704  0.25266167  0.59090296     0.16900
C341        C  0.39916902  0.21744575  0.53985760    -0.12700
C342        C  0.36774821  0.20088857  0.55151406    -0.27900
H343        H  0.39683876  0.23886310  0.51817782     0.16300
H344        H  0.36924555  0.17915492  0.57283503     0.16900
C345        C  0.47839068  0.15095091  0.55621889    -0.12700
C346        C  0.44496323  0.16617806  0.54904794    -0.27900
H347        H  0.50043618  0.16770186  0.56920302     0.16300
H348        H  0.42306198  0.14907833  0.53623562     0.16900
C349        C  0.27970806  0.46246008  0.52490170    -0.14800
C350        C  0.25980166  0.48064141  0.50437895     0.09200
C351        C  0.23420016  0.00163172  0.98492864     0.11100
C352        C  0.21293918  0.02112377  0.96726614    -0.15700
C353        C  0.30128616  0.45847821  0.59036587    -0.12700
C354        C  0.26935034  0.45615666  0.60856663    -0.27900
H355        H  0.32550704  0.47076806  0.60450643     0.16300
H356        H  0.24552301  0.44243807  0.59515216     0.16900
C357        C  0.29357696  0.38004238  0.52163692    -0.12700
C358        C  0.29275144  0.40140623  0.55219636    -0.27900
H359        H  0.30569082  0.39085554  0.49613098     0.16300
H360        H  0.28251909  0.38917923  0.57800408     0.16900
C361        C  0.35976359  0.47948058  0.53223642    -0.12700
C362        C  0.34439020  0.44592373  0.53877902    -0.27900
H363        H  0.34330609  0.50413775  0.53601739     0.16300
H364        H  0.36050209  0.42110551  0.53458631     0.16900
C365        C  0.22200466  0.12618777  0.70796948    -0.12700
C366        C  0.19109786  0.14492986  0.71462049    -0.27900
H367        H  0.24458210  0.14030980  0.69397562     0.16300
H368        H  0.16852109  0.13038082  0.72827706     0.16900
C369        C  0.14996074  0.19796597  0.71921745    -0.12700
C370        C  0.12198649  0.21295948  0.69913581    -0.27900
H371        H  0.14654406  0.19407640  0.74928225     0.16300
H372        H  0.12440686  0.21786689  0.66921117     0.16900
C373        C  0.19205813  0.19124224  0.66184353    -0.12700
C374        C  0.19687956  0.22500114  0.64568507    -0.27900
H375        H  0.19548744  0.16669919  0.64467383     0.16300
H376        H  0.19349846  0.24972082  0.66258208     0.16900
C377        C  0.03221869  0.28745408  0.97420342    -0.14800
C378        C  0.01333538  0.26840590  0.99404920     0.09200
C379        C  0.48764575  0.24475953  0.51438807     0.11100
C380        C  0.46433430  0.22769240  0.53087336    -0.15700
C381        C  0.09228641  0.31038702  0.95363814    -0.12700
C382        C  0.11174732  0.30905526  0.98642172    -0.27900
H383        H  0.10657824  0.30401811  0.92807996     0.16300
H384        H  0.09875878  0.31686192  0.01226950     0.16900
C385        C  0.03654552  0.30973977  0.91043537    -0.12700
C386        C  0.04383951  0.27815410  0.89180477    -0.27900
H387        H  0.02038837  0.33121690  0.89637321     0.16300
H388        H  0.06064268  0.25707104  0.90568632     0.16900
C389        C  0.04556457  0.38611426  0.94876835    -0.12700
C390        C  0.03885182  0.35339254  0.96588049    -0.27900
H391        H  0.06128174  0.38664742  0.92324285     0.16300
H392        H  0.02267662  0.35373956  0.99118177     0.16900
C393        C  0.03104137  0.46662501  0.71104540    -0.14800
C394        C  0.01155382  0.48852770  0.72558089     0.09200
C395        C  0.47120925  0.02670837  0.75746778     0.11100
C396        C  0.45318886  0.04658853  0.77631847    -0.15700
C397        C  0.44317247  0.10841912  0.79976974    -0.12700
C398        C  0.44141445  0.12798288  0.76767859    -0.27900
H399        H  0.45602765  0.12160659  0.82442692     0.16300
H400        H  0.42722091  0.11638389  0.74302089     0.16900
C401        C  0.37565509  0.02685182  0.79607537    -0.12700
C402        C  0.39093529  0.06099500  0.79157356    -0.27900
H403        H  0.39135866  0.00520002  0.81039506     0.16300
H404        H  0.37458581  0.08329387  0.77923279     0.16900
C405        C  0.43803103  0.05581709  0.84299705    -0.12700
C406        C  0.46521760  0.03299240  0.85459790    -0.27900
H407        H  0.42088404  0.06850693  0.86381473     0.16300
H408        H  0.48430789  0.02151632  0.83502390     0.16900
C409        C  0.27904068  0.27368946  0.78140806    -0.14800
C410        C  0.25898907  0.25291581  0.76353090     0.09200
C411        C  0.23608246  0.22804937  0.74273357     0.11100
C412        C  0.21527387  0.20776842  0.72517354    -0.15700
C413        C  0.29866838  0.33874881  0.80036043    -0.12700
C414        C  0.27187946  0.35375985  0.77835054    -0.27900
H415        H  0.31716250  0.35741903  0.81607041     0.16300
H416        H  0.25320639  0.33576499  0.76214764     0.16900
C417        C  0.37513421  0.30574405  0.79783508    -0.12700
C418        C  0.34330334  0.28879621  0.78710930    -0.27900
H419        H  0.37551671  0.32623559  0.82012548     0.16300
H420        H  0.34426052  0.26827353  0.76478088     0.16900
C421        C  0.30430329  0.28421424  0.84443100    -0.12700
C422        C  0.27172425  0.28288588  0.86181810    -0.27900
H423        H  0.32904453  0.27439033  0.85908515     0.16300
H424        H  0.24714112  0.29182285  0.84623916     0.16900
C425        C  0.30549375  0.79919342  0.29771454     0.01200
C426        C  0.44258638  0.55719535  0.29956662     0.01200
C427        C  0.05074178  0.80709791  0.44995328     0.01200
C428        C  0.18853251  0.68717947  0.19746946     0.01200
C429        C  0.30574056  0.94528661  0.05544606     0.01200
C430        C  0.44636611  0.70000569  0.06104852     0.01200
C431        C  0.20045846  0.55343811  0.43816710     0.01200
C432        C  0.04872557  0.94915520  0.19756070     0.01200
O433        O  0.04519311  0.94157142  0.44995731    -0.74800
C434        C  0.45611360  0.54032926  0.40538220     0.86200
O435        O  0.08106956  0.56143927  0.00772893    -0.75900
O436        O  0.46777819  0.59026743  0.02508481    -0.77400
O437        O  0.42687281  0.96140305  0.03113706    -0.77200
O438        O  0.01158070  0.91290442  0.49334899    -0.75800
Zn439      Zn  0.03687304  0.99566521  0.45443903     1.55700
O440        O  0.40710579  0.01188823  0.00027541    -0.77200
Cd441      Cd  0.48504359  0.96486476  0.02278980     1.59700
Cd442      Cd  0.02927647  0.55092901  0.02965417     1.59600
O443        O  0.00370647  0.97430312  0.08669309    -0.77200
O444        O  0.50739742  0.01435209  0.50960798    -1.87700
Cd445      Cd  0.45313815  0.54237395  0.48979634     1.59900
O446        O  0.03675915  0.52702673  0.08290525    -0.77200
O447        O  0.44180369  0.55306709  0.43461982    -0.75800
C448        C  0.10406247  0.54448355  0.48245811     0.86700
C449        C  0.03363482  0.91210269  0.46587319     0.86400
O450        O  0.48362595  0.51868408  0.40676862    -0.74800
C451        C  0.40110540  0.98386754  0.02130554     0.87200
O452        O  0.08897002  0.52101481  0.45998883    -0.74900
C453        C  0.02441931  0.99866814  0.10303816     0.87300
C454        C  0.49110416  0.60355670  0.04885497     0.87600
O455        O  0.00147997  0.60198629  0.03264969    -0.77300
O456        O  0.15740262  0.01164405  0.25647597    -0.74800
C457        C  0.23069026  0.51320573  0.34091624     0.86200
O458        O  0.25452575  0.57154242  0.19497347    -0.75900
O459        O  0.33358526  0.50797910  0.28071935    -0.77400
O460        O  0.23838084  0.90593890  0.24502598    -0.77200
O461        O  0.16596156  0.96106993  0.22207298    -0.75800
Zn462      Zn  0.20513994  0.51904222  0.25701181     1.55700
O463        O  0.28279742  0.91971995  0.28769475    -0.77200
Cd464      Cd  0.22239645  0.95671107  0.22268793     1.59700
Cd465      Cd  0.27823704  0.52118002  0.20402389     1.59600
O466        O  0.23751975  0.95650274  0.16736700    -0.77200
O467        O  0.24916718  0.49218990  0.24143248    -1.87700
Cd468      Cd  0.27914296  0.97786475  0.29154640     1.59900
O469        O  0.28300082  0.49439024  0.15322462    -0.77200
O470        O  0.25958863  0.49559084  0.33286284    -0.75800
C471        C  0.22792153  0.58784898  0.20999753     0.86700
C472        C  0.14480256  0.98463488  0.23656445     0.86400
O473        O  0.20716322  0.52391162  0.31557348    -0.74800
C474        C  0.26349383  0.89599761  0.26863837     0.87200
O475        O  0.20738273  0.57166464  0.23402712    -0.74900
C476        C  0.26221288  0.97365570  0.14903352     0.87300
C477        C  0.34719393  0.52878963  0.25508991     0.87600
O478        O  0.33012737  0.53477666  0.22407832    -0.77300
O479        O  0.33941810  0.73934456  0.02338666    -0.74800
C480        C  0.26607040  0.77688140  0.39590148     0.86200
O481        O  0.24921836  0.83563320  0.03536535    -0.75900
O482        O  0.16188771  0.77148707  0.46150045    -0.77400
O483        O  0.23065193  0.66051962  0.48790198    -0.77200
O484        O  0.31044426  0.69108919  0.04971815    -0.75800
Zn485      Zn  0.29360067  0.77001491  0.47698775     1.55700
O486        O  0.20160778  0.68990000  0.44046681    -0.77200
Cd487      Cd  0.25505941  0.69994731  0.03284913     1.59700
Cd488      Cd  0.22072563  0.78460734  0.03101080     1.59600
O489        O  0.22468630  0.70351126  0.08221900    -0.77200
O490        O  0.24616835  0.75255094  0.49527808    -1.87700
Cd491      Cd  0.21117334  0.74588957  0.45203740     1.59900
O492        O  0.20933273  0.76352898  0.08442793    -0.77200
O493        O  0.23300212  0.77015117  0.40522030    -0.75800
C494        C  0.28167287  0.84450401  0.02498734     0.86700
C495        C  0.33997319  0.70969725  0.04321023     0.86400
O496        O  0.29338330  0.77354112  0.41921704    -0.74800
C497        C  0.21172977  0.66002405  0.45699100     0.87200
O498        O  0.30312375  0.82111120  0.01107628    -0.74900
C499        C  0.21084342  0.73106922  0.09927540     0.87300
C500        C  0.15120790  0.79401531  0.48631915     0.87600
O501        O  0.16998680  0.79281415  0.00203648    -0.77300
O502        O  0.99337746  0.84222227  0.26444087    -0.74800
C503        C  0.41089984  0.79223337  0.28333022     0.86200
O504        O  0.04851203  0.74159992  0.33073568    -0.75900
O505        O  0.44752657  0.68360052  0.24950190    -0.77400
O506        O  0.51225115  0.75953644  0.16599593    -0.77200
O507        O  0.03096520  0.83182815  0.21743764    -0.75800
Zn508      Zn  0.49418376  0.79957830  0.29148736     1.55700
O509        O  0.45582299  0.73806803  0.17837900    -0.77200
Cd510      Cd  0.02260887  0.77643442  0.20907803     1.59700
Cd511      Cd  0.03659943  0.72024582  0.27769440     1.59600
O512        O  0.07112448  0.75222618  0.19564210    -0.77200
O513        O  0.50377845  0.75739570  0.25931610    -1.87700
Cd514      Cd  0.45590669  0.73868459  0.23652800     1.59900
O515        O  0.08329247  0.71541427  0.24490221    -0.77200
O516        O  0.41212695  0.76782551  0.25748635    -0.75800
C517        C  0.03286500  0.76655240  0.34973097     0.86700
C518        C  0.01488338  0.85397589  0.23902256     0.86400
O519        O  0.44002291  0.80578650  0.29898412    -0.74800
C520        C  0.48123331  0.74551171  0.15538619     0.87200
O521        O  0.00659165  0.78606142  0.33592351    -0.74900
C522        C  0.09151886  0.72892065  0.21280994     0.87300
C523        C  0.46461119  0.65989928  0.26975960     0.87600
O524        O  0.01527321  0.66715570  0.28605944    -0.77300
C525        C  0.10451356  0.98068539  0.23011897    -0.12700
C526        C  0.08980601  0.95706534  0.20411915    -0.27900
H527        H  0.08698275  0.99753107  0.24713183     0.16300
H528        H  0.10833020  0.94118590  0.18712588     0.16900
C529        C  0.02085822  0.89433174  0.23395871    -0.12700
C530        C  0.04210937  0.90807455  0.20627366    -0.27900
H531        H  0.00693507  0.91263015  0.25285517     0.16300
H532        H  0.05607318  0.88864811  0.18842038     0.16900
C533        C  0.03961860  0.99077215  0.14111404    -0.12700
C534        C  0.03760017  0.95653430  0.15678995    -0.27900
H535        H  0.05207016  0.01364674  0.15706974     0.12700
H536        H  0.02578120  0.93368623  0.14026142     0.16900
C537        C  0.20044993  0.62398029  0.43967947    -0.12700
C538        C  0.21451653  0.59146059  0.45174064    -0.27900
H539        H  0.17951152  0.62403960  0.41722401     0.16300
H540        H  0.23584538  0.59230592  0.47391317     0.16900
C541        C  0.20703645  0.54836566  0.39590790    -0.12700
C542        C  0.22532458  0.51953370  0.38146594    -0.27900
H543        H  0.19458366  0.56833410  0.37650847     0.16300
H544        H  0.23883703  0.49969766  0.40013008     0.16900
C545        C  0.14311090  0.55512950  0.47705443    -0.12700
C546        C  0.15932197  0.54874536  0.44412608    -0.27900
H547        H  0.15909471  0.56681410  0.50054607     0.16300
H548        H  0.14222197  0.53858316  0.42061481     0.16900
C549        C  0.45113554  0.71106453  0.10230272    -0.12700
C550        C  0.47573710  0.73700188  0.11520708    -0.27900
H551        H  0.43338555  0.69701055  0.12220372     0.16300
H552        H  0.49448453  0.75093407  0.09631316     0.16900
C553        C  0.40808373  0.71134840  0.04664920    -0.12700
C554        C  0.37598718  0.69670040  0.05885965    -0.27900
H555        H  0.40659182  0.73262061  0.02474368     0.16300
H556        H  0.37631534  0.67462517  0.07984755     0.16900
C557        C  0.48451481  0.64145034  0.06326004    -0.12700
C558        C  0.45195460  0.65853041  0.05593002    -0.27900
H559        H  0.50715188  0.65655658  0.07721251     0.16300
H560        H  0.42943093  0.64263626  0.04263104     0.16900
C561        C  0.28189074  0.96524980  0.02753535    -0.14800
C562        C  0.26029114  0.98149568  0.00701772     0.09200
C563        C  0.23747424  0.50374922  0.48115638     0.11100
C564        C  0.21981708  0.52504400  0.46162664    -0.15700
C565        C  0.30074174  0.96266468  0.09383699    -0.12700
C566        C  0.26765230  0.96178824  0.11018408    -0.27900
H567        H  0.32456308  0.97448494  0.10903763     0.16300
H568        H  0.24424564  0.94848058  0.09561290     0.16900
C569        C  0.29473516  0.88325854  0.02598901    -0.12700
C570        C  0.29282258  0.90474559  0.05638943    -0.27900
H571        H  0.30800106  0.89410580  0.00111278     0.16300
H572        H  0.28153510  0.89280155  0.08184282     0.16900
C573        C  0.36298405  0.97989906  0.03517452    -0.12700
C574        C  0.34648953  0.94754370  0.04463488    -0.27900
H575        H  0.34669749  0.00503499  0.03524140     0.16300
H576        H  0.36216355  0.92209356  0.04290737     0.16900
C577        C  0.22252756  0.62708258  0.19937617    -0.12700
C578        C  0.19240244  0.64618862  0.20768367    -0.27900
H579        H  0.24438001  0.64095985  0.18404205     0.16300
H580        H  0.17028086  0.63183431  0.22226098     0.16900
C581        C  0.15221495  0.69964329  0.21308672    -0.12700
C582        C  0.12525851  0.71731728  0.19410085    -0.27900
H583        H  0.14868650  0.69441812  0.24294994     0.16300
H584        H  0.12796923  0.72425424  0.16462063     0.16900
C585        C  0.19327995  0.69265433  0.15491910    -0.12700
C586        C  0.19761234  0.72627735  0.13826606    -0.27900
H587        H  0.19686863  0.66804998  0.13787763     0.16300
H588        H  0.19363655  0.75123908  0.15462113     0.16900
C589        C  0.03481513  0.77718890  0.47294709    -0.14800
C590        C  0.01860251  0.75658662  0.49366387     0.09200
C591        C  0.49373549  0.73630582  0.01688646     0.11100
C592        C  0.47318731  0.71932343  0.03693104    -0.15700
C593        C  0.09261883  0.80461085  0.45202423    -0.12700
C594        C  0.11263080  0.80656674  0.48437469    -0.27900
H595        H  0.10690291  0.79851337  0.42638600     0.16300
H596        H  0.09965070  0.81452547  0.51018012     0.16900
C597        C  0.03660117  0.80201184  0.40950855    -0.12700
C598        C  0.04554557  0.77213509  0.38906875    -0.27900
H599        H  0.01927476  0.82328601  0.39665978     0.16300
H600        H  0.06348408  0.75121161  0.40158861     0.16900
C601        C  0.04680222  0.87661778  0.45106746    -0.12700
C602        C  0.03756498  0.84357426  0.46583388    -0.27900
H603        H  0.06471483  0.87763178  0.42709798     0.16300
H604        H  0.01977726  0.84295070  0.48997552     0.16900
C605        C  0.02544313  0.97275360  0.22031159    -0.14800
C606        C  0.00459250  0.99135663  0.23730089     0.09200
C607        C  0.47875146  0.51650084  0.25115559     0.11100
C608        C  0.46257694  0.53718491  0.27091673    -0.15700
C609        C  0.45431134  0.59828313  0.29941416    -0.12700
C610        C  0.44892546  0.62151267  0.27028756    -0.27900
H611        H  0.46977805  0.60909720  0.32375387     0.16300
H612        H  0.43247400  0.61228672  0.24605641     0.16900
C613        C  0.38411658  0.54634741  0.26031560    -0.12700
C614        C  0.40115896  0.54926595  0.29420910    -0.27900
H615        H  0.39831228  0.55542913  0.23533357     0.16300
H616        H  0.38585364  0.53962660  0.31834125     0.16900
C617        C  0.45493813  0.54080270  0.33687075    -0.12700
C618        C  0.44113197  0.55262260  0.36907110    -0.27900
H619        H  0.47626404  0.51975938  0.33780417     0.16300
H620        H  0.41974791  0.57351029  0.36859281     0.16900
C621        C  0.27874503  0.77551868  0.27605773    -0.14800
C622        C  0.25945906  0.75435577  0.25779431     0.09200
C623        C  0.23764930  0.72917523  0.23619444     0.11100
C624        C  0.21734497  0.70880871  0.21813791    -0.15700
C625        C  0.29813913  0.84099722  0.29334589    -0.12700
C626        C  0.26977696  0.85551143  0.27296448    -0.27900
H627        H  0.31709613  0.85998066  0.30807909     0.16300
H628        H  0.25047230  0.83726693  0.25784851     0.16900
C629        C  0.37495268  0.80470497  0.29658790    -0.12700
C630        C  0.34308796  0.79030001  0.28263865    -0.27900
H631        H  0.37464601  0.82461930  0.31939834     0.16300
H632        H  0.34444706  0.77031662  0.25985475     0.16900
C633        C  0.30343905  0.78813607  0.33902223    -0.12700
C634        C  0.27133147  0.78954931  0.35691425    -0.27900
H635        H  0.32776194  0.77759667  0.35389661     0.16300
H636        H  0.24688137  0.79885733  0.34135492     0.16900
C637        C  0.30645833  0.79674733  0.80653576     0.01200
C638        C  0.44933614  0.54861070  0.80690821     0.01200
C639        C  0.05928257  0.82313039  0.95239950     0.01200
C640        C  0.19837104  0.68962179  0.69259004     0.01200
C641        C  0.31640846  0.94092756  0.55865236     0.01200
C642        C  0.44093932  0.70234405  0.54933771     0.01200
C643        C  0.19893180  0.54969643  0.94652163     0.01200
C644        C  0.04234450  0.94838699  0.69619446     0.01200
O645        O  0.02502452  0.94153558  0.96093376    -0.74800
C646        C  0.46942821  0.54116701  0.91328927     0.86200
O647        O  0.08676905  0.55787323  0.50989050    -0.75900
O648        O  0.46051509  0.59133777  0.51611270    -0.77400
O649        O  0.43623301  0.96031417  0.53899295    -0.77200
O650        O  0.99345536  0.92332113  0.01095592    -0.75800
Zn651      Zn  0.01944235  0.99894913  0.95952897     1.55700
O652        O  0.41797415  0.01720136  0.52192236    -0.77200
Cd653      Cd  0.49425037  0.96527794  0.53452983     1.59700
Cd654      Cd  0.03394236  0.54506125  0.52913923     1.59600
O655        O  0.01637392  0.95962307  0.57612785    -0.77200
O656        O  0.49848211  0.01182044  0.99466575    -1.87700
Cd657      Cd  0.46225391  0.54128368  0.99755041     1.59900
O658        O  0.04299833  0.52052573  0.58124421    -0.77200
O659        O  0.45274110  0.55167857  0.94207045    -0.75800
C660        C  0.09628026  0.55069958  0.97786519     0.86700
C661        C  0.01301606  0.91601123  0.98298343     0.86400
O662        O  0.49909196  0.52246142  0.91551954    -0.74800
C663        C  0.41126908  0.98498681  0.53492200     0.87200
O664        O  0.07924251  0.53032175  0.95359953    -0.74900
C665        C  0.03269382  0.98580275  0.59462309     0.87300
C666        C  0.48569815  0.60609452  0.53679827     0.87600
O667        O  0.00197268  0.59303444  0.53418556    -0.77300
O668        O  0.15105993  0.99213204  0.73729423    -0.74800
C669        C  0.23646863  0.51758513  0.84893767     0.86200
O670        O  0.26357841  0.57390905  0.70108069    -0.75900
O671        O  0.33658030  0.50282921  0.78917281    -0.77400
O672        O  0.24283988  0.89792649  0.74718878    -0.77200
O673        O  0.17373612  0.94151540  0.71138566    -0.75800
Zn674      Zn  0.21248333  0.52831718  0.76625222     1.55700
O675        O  0.27178711  0.91443826  0.80063691    -0.77200
Cd676      Cd  0.22789342  0.94586822  0.72178971     1.59700
Cd677      Cd  0.28320331  0.52183489  0.71168717     1.59600
O678        O  0.24829861  0.94618339  0.66968692    -0.77200
O679        O  0.25122643  0.49574652  0.74862822    -1.87700
Cd680      Cd  0.26662289  0.97230494  0.79883420     1.59900
O681        O  0.28576385  0.49440732  0.66089540    -0.77200
O682        O  0.26178453  0.49508312  0.84050005    -0.75800
C683        C  0.23817324  0.59254663  0.71550981     0.86700
C684        C  0.14696051  0.96208184  0.71831912     0.86400
O685        O  0.21607261  0.53339232  0.82382577    -0.74800
C686        C  0.26017419  0.88972993  0.77739929     0.87200
O687        O  0.21750595  0.57909126  0.74090653    -0.74900
C688        C  0.27174277  0.96595664  0.65270018     0.87300
C689        C  0.35184810  0.52310527  0.76417393     0.87600
O690        O  0.33550608  0.53101558  0.73317889    -0.77300
O691        O  0.33507849  0.73885473  0.50073025    -0.74800
C692        C  0.29382984  0.77328650  0.91152326     0.86200
O693        O  0.25949347  0.83586600  0.53510982    -0.75900
O694        O  0.17529771  0.75795630  0.95081209    -0.77400
O695        O  0.23692890  0.65543789  0.99818971    -0.77200
O696        O  0.30641285  0.69530111  0.53468321    -0.75800
Zn697      Zn  0.30060680  0.76841007  0.99563873     1.55700
O698        O  0.22609148  0.68281927  0.94248317    -0.77200
Cd699      Cd  0.25117504  0.70381087  0.52194335     1.59700
Cd700      Cd  0.22533395  0.78933180  0.53038100     1.59600
O701        O  0.22571835  0.70490091  0.57381503    -0.77200
O702        O  0.25163789  0.74799926  0.00376123    -1.87700
Cd703      Cd  0.22888252  0.73883751  0.95320847     1.59900
O704        O  0.21936229  0.76591531  0.58262811    -0.77200
O705        O  0.25993620  0.76305827  0.91127872    -0.75800
C706        C  0.28874641  0.84456045  0.51780442     0.86700
C707        C  0.33583318  0.71161206  0.52410131     0.86400
O708        O  0.31365638  0.77313722  0.94148771    -0.74800
C709        C  0.22829542  0.65383010  0.96304439     0.87200
O710        O  0.30322561  0.82261864  0.49470936    -0.74900
C711        C  0.21784339  0.73245832  0.59447221     0.87300
C712        C  0.15658576  0.77896519  0.97148686     0.87600
O713        O  0.17227281  0.80465829  0.51356851    -0.77300
O714        O  0.01843579  0.84103175  0.75092956    -0.74800
C715        C  0.40357555  0.76588949  0.77815902     0.86200
O716        O  0.04543406  0.74061813  0.84463397    -0.75900
O717        O  0.45491368  0.66637828  0.73904367    -0.77400
O718        O  0.50702907  0.74919965  0.65967436    -0.77200
O719        O  0.05333357  0.81485333  0.70823950    -0.75800
Zn720      Zn  0.48519646  0.79227080  0.78107153     1.55700
O721        O  0.45058744  0.72756464  0.67121183    -0.77200
Cd722      Cd  0.04097233  0.75991866  0.71408673     1.59700
Cd723      Cd  0.04102372  0.71793845  0.79195407     1.59600
O724        O  0.09000588  0.73226190  0.71458323    -0.77200
O725        O  0.49885374  0.74779075  0.75316891    -1.87700
Cd726      Cd  0.45522906  0.72228066  0.72911132     1.59900
O727        O  0.09398321  0.71016378  0.77295308    -0.77200
O728        O  0.40984841  0.73972454  0.75553318    -0.75800
C729        C  0.03939258  0.77321700  0.85647675     0.86700
C730        C  0.04015820  0.84340340  0.72323985     0.86400
O731        O  0.42851077  0.78974656  0.78854130    -0.74800
C732        C  0.47552535  0.73695797  0.64839535     0.87200
O733        O  0.02467262  0.79819802  0.83542640    -0.74900
C734        C  0.10774347  0.71568902  0.74087524     0.87300
C735        C  0.46852264  0.64753637  0.76612317     0.87600
O736        O  0.01755881  0.66582606  0.79533385    -0.77300
C737        C  0.11113754  0.94937112  0.70253113    -0.12700
C738        C  0.07904027  0.96356115  0.71188615    -0.27900
H739        H  0.11145813  0.92694119  0.68234330     0.16300
H740        H  0.07940958  0.98673338  0.73148412     0.16900
C741        C  0.05053226  0.87959802  0.70664228    -0.12700
C742        C  0.03267996  0.91090121  0.71384084    -0.27900
H743        H  0.07183997  0.87978820  0.68591806     0.16300
H744        H  0.00997225  0.90916832  0.73321721     0.16900
C745        C  0.04493061  0.98011631  0.63399231    -0.12700
C746        C  0.03978849  0.94824132  0.65343946    -0.27900
H747        H  0.05516531  0.00464997  0.64896506     0.12700
H748        H  0.02988381  0.92331663  0.63897267     0.16900
C749        C  0.22013592  0.61776840  0.94452415    -0.12700
C750        C  0.21078377  0.58702125  0.96387743    -0.27900
H751        H  0.21952259  0.61749932  0.91405239     0.16300
H752        H  0.20996218  0.58899093  0.99434179     0.16900
C753        C  0.20630547  0.54701918  0.90410886    -0.12700
C754        C  0.23135360  0.52399965  0.88946917    -0.27900
H755        H  0.18940183  0.56371995  0.88498275     0.16300
H756        H  0.24928784  0.50784252  0.90793536     0.16900
C757        C  0.13498084  0.56207229  0.97182142    -0.12700
C758        C  0.15798421  0.54116267  0.95179654    -0.27900
H759        H  0.14495515  0.58682671  0.98636801     0.16300
H760        H  0.14718586  0.51539561  0.93954621     0.16900
C761        C  0.44338808  0.71047693  0.59152154    -0.12700
C762        C  0.46924393  0.73332176  0.60760271    -0.27900
H763        H  0.42421048  0.69564266  0.60940201     0.16300
H764        H  0.48924986  0.74790655  0.59062954     0.16900
C765        C  0.40393260  0.71484228  0.53248434    -0.12700
C766        C  0.37140055  0.69873497  0.54072971    -0.27900
H767        H  0.40378834  0.73763169  0.51215262     0.16300
H768        H  0.37081774  0.67579957  0.56076266     0.16900
C769        C  0.47915943  0.64403775  0.55072274    -0.12700
C770        C  0.44690488  0.66132844  0.54238324    -0.27900
H771        H  0.50142562  0.65885607  0.56559837     0.16300
H772        H  0.42493152  0.64602392  0.52751640     0.16900
C773        C  0.29306310  0.96319907  0.53228585    -0.14800
C774        C  0.27183026  0.98100252  0.51286343     0.09200
C775        C  0.23955503  0.49981743  0.98469000     0.11100
C776        C  0.21974396  0.52134668  0.96807506    -0.15700
C777        C  0.31146845  0.95541497  0.59835311    -0.12700
C778        C  0.27815336  0.95540487  0.61370034    -0.27900
H779        H  0.33528300  0.96547448  0.61484273     0.16300
H780        H  0.25468896  0.94366404  0.59786918     0.16900
C781        C  0.30586339  0.88156573  0.52327414    -0.12700
C782        C  0.30345332  0.90055643  0.55553359    -0.27900
H783        H  0.32032497  0.89395096  0.49984862     0.16300
H784        H  0.29058810  0.88709614  0.57939102     0.16900
C785        C  0.37304318  0.97823239  0.54605183    -0.12700
C786        C  0.35690869  0.94459893  0.54875877    -0.27900
H787        H  0.35648090  0.00272115  0.55041967     0.16300
H788        H  0.37281624  0.91992974  0.54324580     0.16900
C789        C  0.23364541  0.63101938  0.70225769    -0.12700
C790        C  0.20202287  0.64944230  0.70547999    -0.27900
H791        H  0.25679020  0.64445875  0.68855656     0.16300
H792        H  0.17854553  0.63520751  0.71783737     0.16900
C793        C  0.15960908  0.70286901  0.69969731    -0.12700
C794        C  0.14530037  0.70260879  0.73423380    -0.27900
H795        H  0.14281681  0.71268342  0.67594400     0.16300
H796        H  0.16154146  0.69214733  0.75805704     0.16900
C797        C  0.20648020  0.69328090  0.65093173    -0.12700
C798        C  0.20696162  0.72667929  0.63365548    -0.27900
H799        H  0.21308048  0.66860943  0.63510497     0.16300
H800        H  0.20042648  0.75128242  0.64961928     0.16900
C801        C  0.03568309  0.79783590  0.97535547    -0.14800
C802        C  0.01604855  0.77739598  0.99357371     0.09200
C803        C  0.49260021  0.74039439  0.51295242     0.11100
C804        C  0.46948697  0.72259087  0.52870895    -0.15700
C805        C  0.09985566  0.81742639  0.96439975    -0.12700
C806        C  0.11762533  0.78513136  0.95987010    -0.27900
H807        H  0.11520888  0.84051493  0.97726718     0.16300
H808        H  0.10370350  0.76198294  0.94612356     0.16900
C809        C  0.05211773  0.81537262  0.91057254    -0.12700
C810        C  0.04892669  0.78085530  0.89624365    -0.27900
H811        H  0.04739529  0.83881521  0.89162384     0.16300
H812        H  0.05207584  0.75678067  0.91446993     0.16900
C813        C  0.02121394  0.87633007  0.97735086    -0.12700
C814        C  0.05016022  0.86426016  0.95816715    -0.27900
H815        H  0.00328088  0.85658002  0.99142201     0.16300
H816        H  0.06771713  0.88486501  0.94461834     0.16900
C817        C  0.01456660  0.97384334  0.70805793    -0.14800
C818        C  0.99457205  0.99516740  0.72202080     0.09200
C819        C  0.48442694  0.51107986  0.75516271     0.11100
C820        C  0.46885482  0.52801642  0.77854293    -0.15700
C821        C  0.45845608  0.59000541  0.80254496    -0.12700
C822        C  0.45536179  0.60875365  0.76997254    -0.27900
H823        H  0.47084360  0.60471898  0.82649378     0.16300
H824        H  0.44328759  0.59544485  0.74523451     0.16900
C825        C  0.38975242  0.53807582  0.76982844    -0.12700
C826        C  0.40819520  0.53858449  0.80320533    -0.27900
H827        H  0.40336756  0.54793215  0.74487132     0.16300
H828        H  0.39418089  0.52789935  0.82772773     0.16900
C829        C  0.46448430  0.53600146  0.84479176    -0.12700
C830        C  0.45317479  0.55112214  0.87662747    -0.27900
H831        H  0.48600061  0.51517661  0.84627502     0.16300
H832        H  0.43119987  0.57138390  0.87558563     0.16900
C833        C  0.28774866  0.77492650  0.77599162    -0.14800
C834        C  0.26991032  0.75564035  0.75439001     0.09200
C835        C  0.24650973  0.73257070  0.73204884     0.11100
C836        C  0.22521295  0.71298697  0.71425931    -0.15700
C837        C  0.29339537  0.83692818  0.80710979    -0.12700
C838        C  0.26710427  0.85010999  0.78344469    -0.27900
H839        H  0.30770274  0.85610483  0.82626708     0.16300
H840        H  0.25202603  0.83161795  0.76433719     0.16900
C841        C  0.36607654  0.76625264  0.79294161    -0.12700
C842        C  0.34790610  0.79740619  0.80016083    -0.27900
H843        H  0.35109064  0.73979557  0.79340216     0.16300
H844        H  0.36247231  0.82400387  0.79778969     0.16900
C845        C  0.29616155  0.77775172  0.84300869    -0.12700
C846        C  0.31027316  0.78752097  0.87674050    -0.27900
H847        H  0.27452655  0.75631782  0.84206549     0.16300
H848        H  0.33313049  0.80741082  0.87883355     0.16900
C849        C  0.80355584  0.30103328  0.30591846     0.01200
C850        C  0.93505162  0.05115863  0.29963724     0.01200
C851        C  0.55450096  0.31626377  0.45924872     0.01200
C852        C  0.69104770  0.19025527  0.19816897     0.01200
C853        C  0.81096846  0.44233774  0.04746421     0.01200
C854        C  0.93931382  0.21094525  0.05711189     0.01200
C855        C  0.70005349  0.04527723  0.44331121     0.01200
C856        C  0.54914422  0.44643526  0.20306680     0.01200
O857        O  0.53299646  0.44937245  0.44354872    -0.74800
C858        C  0.98249572  0.02162532  0.39410128     0.86200
O859        O  0.57864851  0.05958135  0.00887225    -0.75900
O860        O  0.94679378  0.09452855  0.99707171    -0.77400
O861        O  0.93224879  0.46089769  0.02937966    -0.77200
O862        O  0.50352719  0.41980357  0.48924271    -0.75800
Zn863      Zn  0.51811908  0.50277158  0.44811342     1.55700
O864        O  0.91281631  0.51633899  0.00915822    -0.77200
Cd865      Cd  0.99035983  0.46681009  0.02298683     1.59700
Cd866      Cd  0.52490627  0.04978038  0.02708088     1.59600
O867        O  0.49990578  0.45131537  0.07610474    -0.77200
O868        O  0.00831134  0.50843119  0.49470677    -1.87700
Cd869      Cd  0.95859830  0.02764442  0.47411663     1.59900
O870        O  0.53113970  0.02866572  0.08033757    -0.77200
O871        O  0.95652397  0.02590386  0.41686563    -0.75800
C872        C  0.60411208  0.04221690  0.49004280     0.86700
C873        C  0.52580321  0.41991553  0.46212070     0.86400
O874        O  0.01467825  0.01196429  0.40498480    -0.74800
C875        C  0.90682864  0.48503790  0.02452182     0.87200
O876        O  0.58316456  0.02832969  0.46406200    -0.74900
C877        C  0.52150002  0.46757071  0.09967382     0.87300
C878        C  0.96573689  0.11511858  0.01900921     0.87600
O879        O  0.49490039  0.09895464  0.03070356    -0.77300
O880        O  0.65748306  0.48950460  0.23838713    -0.74800
C881        C  0.72630143  0.00810436  0.34378700     0.86200
O882        O  0.75090179  0.07191225  0.20163950    -0.75900
O883        O  0.82707454  0.99964992  0.28080200    -0.77400
O884        O  0.76345912  0.40240172  0.23114471    -0.77200
O885        O  0.67989722  0.43610300  0.21743701    -0.75800
Zn886      Zn  0.69945540  0.01900820  0.26058087     1.55700
O887        O  0.79141813  0.42236449  0.28392598    -0.77200
Cd888      Cd  0.73404028  0.44755330  0.21294337     1.59700
Cd889      Cd  0.77073464  0.01939686  0.20683719     1.59600
O890        O  0.74194227  0.45115921  0.15666266    -0.77200
O891        O  0.74193328  0.99031083  0.24390295    -1.87700
Cd892      Cd  0.77988002  0.47919947  0.28338936     1.59900
O893        O  0.77051446  0.99506653  0.15481149    -0.77200
O894        O  0.75427671  0.98973232  0.33444734    -0.75800
C895        C  0.72503343  0.08918614  0.21685109     0.86700
C896        C  0.65304913  0.45658848  0.22505482     0.86400
O897        O  0.70271263  0.02080177  0.31943950    -0.74800
C898        C  0.78355307  0.39667788  0.26030576     0.87200
O899        O  0.70321113  0.07313839  0.23981200    -0.74900
C900        C  0.76402279  0.47112542  0.13799295     0.87300
C901        C  0.84141836  0.01962299  0.25505859     0.87600
O902        O  0.82420388  0.02741421  0.22457753    -0.77300
O903        O  0.83114000  0.23685220  0.00664652    -0.74800
C904        C  0.79196062  0.26147227  0.40692846     0.86200
O905        O  0.75632319  0.33465950  0.03602949    -0.75900
O906        O  0.67365138  0.25914752  0.44955654    -0.77400
O907        O  0.72892304  0.15229916  0.49563909    -0.77200
O908        O  0.80393295  0.19323312  0.04153628    -0.75800
Zn909      Zn  0.79986307  0.25977745  0.49034458     1.55700
O910        O  0.71478386  0.18021220  0.44090947    -0.77200
Cd911      Cd  0.74774568  0.20125051  0.02833463     1.59700
Cd912      Cd  0.72197523  0.28798861  0.03557009     1.59600
O913        O  0.72213978  0.20421271  0.08026586    -0.77200
O914        O  0.74993848  0.24359508  0.50018591    -1.87700
Cd915      Cd  0.72501060  0.23595648  0.45058571     1.59900
O916        O  0.71740093  0.26565142  0.08857061    -0.77200
O917        O  0.75693070  0.25768526  0.40810094    -0.75800
C918        C  0.78434952  0.34245935  0.01637267     0.86700
C919        C  0.83299300  0.21032525  0.03075251     0.86400
O920        O  0.81260857  0.25720635  0.43600199    -0.74800
C921        C  0.71669139  0.15120061  0.46152318     0.87200
O922        O  0.79807872  0.31905152  0.99438743    -0.74900
C923        C  0.71510492  0.23227830  0.10070407     0.87300
C924        C  0.65589885  0.27999697  0.47112569     0.87600
O925        O  0.66864103  0.30414531  0.01957577    -0.77300
O926        O  0.50228871  0.33842786  0.27089374    -0.74800
C927        C  0.90007525  0.26875418  0.27181690     0.86200
O928        O  0.54303369  0.23740463  0.34923145    -0.75900
O929        O  0.95660414  0.16541291  0.25929847    -0.77400
O930        O  0.01005119  0.25045652  0.16638025    -0.77200
O931        O  0.53801466  0.32489795  0.22305378    -0.75800
Zn932      Zn  0.98136803  0.29038414  0.28858218     1.55700
O933        O  0.95883992  0.21795565  0.17956170    -0.77200
Cd934      Cd  0.53251976  0.26674219  0.22092365     1.59700
Cd935      Cd  0.53536519  0.21565674  0.29671733     1.59600
O936        O  0.58440136  0.24179415  0.22080598    -0.77200
O937        O  0.00053459  0.24954738  0.25889013    -1.87700
Cd938      Cd  0.95803759  0.21932407  0.23747411     1.59900
O939        O  0.58622999  0.20980577  0.27476330    -0.77200
O940        O  0.90898915  0.24240214  0.25049529    -0.75800
C941        C  0.53155710  0.26699964  0.36384811     0.86700
C942        C  0.52336543  0.34854015  0.24451535     0.86400
O943        O  0.92435232  0.28901087  0.28910048    -0.74800
C944        C  0.98145532  0.23150981  0.15621352     0.87200
O945        O  0.51006434  0.28907038  0.34598802    -0.74900
C946        C  0.60093878  0.22053444  0.24456263     0.87300
C947        C  0.97901736  0.14834004  0.28135914     0.87600
O948        O  0.51448339  0.16272376  0.30299301    -0.77300
C949        C  0.61642086  0.44140979  0.21473576    -0.12700
C950        C  0.58492837  0.45763230  0.22328773    -0.27900
H951        H  0.61540259  0.41739810  0.19626912     0.16300
H952        H  0.58569373  0.48109869  0.24249935     0.16900
C953        C  0.53149307  0.38887251  0.24011558    -0.12700
C954        C  0.54107746  0.40463887  0.20729880    -0.27900
H955        H  0.52814821  0.40647657  0.26443231     0.16300
H956        H  0.54260804  0.38709342  0.18264861     0.16900
C957        C  0.52335433  0.45150862  0.13765524    -0.12700
C958        C  0.55152996  0.45789670  0.16204361    -0.27900
H959        H  0.49992397  0.43462241  0.14641352     0.12700
H960        H  0.57550241  0.47367608  0.15270802     0.16900
C961        C  0.70333310  0.11565025  0.44491608    -0.12700
C962        C  0.71532531  0.08260290  0.45757965    -0.27900
H963        H  0.68340171  0.11670212  0.42157681     0.16300
H964        H  0.73629014  0.08263090  0.48012988     0.16900
C965        C  0.70517381  0.04155799  0.40070327    -0.12700
C966        C  0.72219140  0.01288685  0.38466150    -0.27900
H967        H  0.69262806  0.06240880  0.38237319     0.16300
H968        H  0.73565747  0.99201722  0.40213175     0.16900
C969        C  0.64394607  0.04807835  0.48361996    -0.12700
C970        C  0.65887951  0.04166960  0.45014732    -0.27900
H971        H  0.66165740  0.05680579  0.50719692     0.16300
H972        H  0.64062152  0.03368718  0.42666708     0.16900
C973        C  0.94253234  0.22235359  0.09818072    -0.12700
C974        C  0.97592472  0.22355945  0.11611802    -0.27900
H975        H  0.91787418  0.22904835  0.11326451     0.16300
H976        H  0.00068342  0.21873909  0.10046234     0.16900
C977        C  0.90097909  0.21838154  0.03949086    -0.12700
C978        C  0.86953523  0.19994078  0.04800267    -0.27900
H979        H  0.89905632  0.24013838  0.01812939     0.16300
H980        H  0.87048185  0.17779329  0.06890244     0.16900
C981        C  0.95410216  0.15377676  0.02144734    -0.12700
C982        C  0.95015632  0.17045493  0.05445597    -0.27900
H983        H  0.94601320  0.16812439  0.99560073     0.16300
H984        H  0.95644689  0.15480374  0.08007490     0.16900
C985        C  0.78866195  0.46280598  0.01877640    -0.14800
C986        C  0.76758501  0.48029370  0.99887689     0.09200
C987        C  0.74014777  0.99508082  0.48272376     0.11100
C988        C  0.72007474  0.01600143  0.46520078    -0.15700
C989        C  0.80406795  0.45943587  0.08543854    -0.12700
C990        C  0.77001120  0.46026845  0.09925218    -0.27900
H991        H  0.82730524  0.46996912  0.10250071     0.16300
H992        H  0.74687517  0.44795058  0.08338250     0.16900
C993        C  0.80097210  0.37996907  0.01770932    -0.12700
C994        C  0.79806958  0.40194406  0.04769923    -0.27900
H995        H  0.81549141  0.39005471  0.99327486     0.16300
H996        H  0.78504078  0.39062150  0.07254367     0.16900
C997        C  0.86873928  0.47866653  0.03654477    -0.12700
C998        C  0.85199264  0.44526920  0.03911510    -0.27900
H999        H  0.85230142  0.50336912  0.04022397     0.16300
H1000       H  0.86770241  0.42030753  0.03433750     0.16900
C1001       C  0.72234799  0.12914095  0.20736501    -0.12700
C1002       C  0.69184668  0.14944360  0.21065255    -0.27900
H1003       H  0.74651484  0.14224396  0.19518561     0.16300
H1004       H  0.66713814  0.13620586  0.22155307     0.16900
C1005       C  0.65288876  0.20598712  0.20374559    -0.12700
C1006       C  0.63824486  0.20705192  0.23790638    -0.27900
H1007       H  0.63699372  0.21638297  0.17961919     0.16300
H1008       H  0.65365835  0.19556646  0.26182172     0.16900
C1009       C  0.70078967  0.19372670  0.15688533    -0.12700
C1010       C  0.70393958  0.22714379  0.13991260    -0.27900
H1011       H  0.70598569  0.16873925  0.14095529     0.16300
H1012       H  0.69868339  0.25209217  0.15588864     0.16900
C1013       C  0.53534789  0.28784712  0.48172773    -0.14800
C1014       C  0.51479792  0.26669999  0.49732020     0.09200
C1015       C  0.98838672  0.24937161  0.01698029     0.11100
C1016       C  0.96613169  0.23323604  0.03571995    -0.15700
C1017       C  0.59611768  0.31516668  0.46860251    -0.12700
C1018       C  0.61651055  0.28530653  0.46079862    -0.27900
H1019       H  0.60943010  0.33870056  0.48282159     0.16300
H1020       H  0.60383624  0.26231253  0.44564565     0.16900
C1021       C  0.54484725  0.30903704  0.41767920    -0.12700
C1022       C  0.54331057  0.27461973  0.40285660    -0.27900
H1023       H  0.53628115  0.33212446  0.39976357     0.16300
H1024       H  0.55035996  0.25055086  0.41996566     0.16900
C1025       C  0.54465490  0.38539201  0.45217370    -0.12700
C1026       C  0.53846237  0.35325792  0.47061127    -0.27900
H1027       H  0.56362228  0.38622512  0.42909657     0.16300
H1028       H  0.51928658  0.35345058  0.49361773     0.16900
C1029       C  0.51966375  0.46841818  0.21880356    -0.14800
C1030       C  0.49916683  0.49003390  0.23245247     0.09200
C1031       C  0.97948016  0.01209459  0.25707588     0.11100
C1032       C  0.95872620  0.02951692  0.27539208    -0.15700
C1033       C  0.93897628  0.09192107  0.28868647    -0.12700
C1034       C  0.97204780  0.10938176  0.29218558    -0.27900
H1035       H  0.91519126  0.10690992  0.27758552     0.16300
H1036       H  0.99529890  0.09431467  0.30439008     0.16900
C1037       C  0.87888391  0.03516128  0.26027073    -0.12700
C1038       C  0.89587008  0.03664684  0.29417328    -0.27900
H1039       H  0.89260525  0.04657219  0.23589904     0.16300
H1040       H  0.88139630  0.02585992  0.31841282     0.16900
C1041       C  0.94576578  0.04640685  0.34096274    -0.12700
C1042       C  0.97531599  0.02743228  0.35390287    -0.27900
H1043       H  0.92791977  0.05928150  0.36103262     0.16300
H1044       H  0.99512172  0.01611550  0.33497891     0.16900
C1045       C  0.78093614  0.27819502  0.27907190    -0.14800
C1046       C  0.76188989  0.25753555  0.25983401     0.09200
C1047       C  0.73894060  0.23262264  0.23887053     0.11100
C1048       C  0.71826941  0.21231403  0.22101581    -0.15700
C1049       C  0.79502847  0.34193437  0.30015823    -0.12700
C1050       C  0.79719230  0.35876887  0.26651793    -0.27900
H1051       H  0.78507070  0.35782839  0.32363231     0.16300
H1052       H  0.80463466  0.34271959  0.24219098     0.16900
C1053       C  0.86012512  0.27465782  0.27551557    -0.12700
C1054       C  0.84527359  0.29604728  0.30188659    -0.27900
H1055       H  0.84232234  0.25927658  0.25591223     0.16300
H1056       H  0.86364905  0.31111530  0.32132474     0.16900
C1057       C  0.78974081  0.28943894  0.34413293    -0.12700
C1058       C  0.80933474  0.27207726  0.37141831    -0.27900
H1059       H  0.76075083  0.29480665  0.34886598     0.16300
H1060       H  0.83849105  0.26676055  0.36850123     0.16900
C1061       C  0.80333907  0.29862943  0.80695429     0.01200
C1062       C  0.94139184  0.04964629  0.80050851     0.01200
C1063       C  0.54821657  0.31134485  0.95350093     0.01200
C1064       C  0.68907194  0.18996856  0.69604251     0.01200
C1065       C  0.81428606  0.44010488  0.54460035     0.01200
C1066       C  0.94080609  0.19052761  0.56355288     0.01200
C1067       C  0.69404242  0.05261583  0.94003014     0.01200
C1068       C  0.55478819  0.45507649  0.69219070     0.01200
O1069       O  0.53978298  0.44744915  0.94856350    -0.74800
C1070       C  0.95891848  0.03116538  0.90621288     0.86200
O1071       O  0.59204786  0.05001920  0.52226823    -0.75900
O1072       O  0.95473285  0.08251538  0.48692463    -0.77400
O1073       O  0.93536181  0.45913287  0.52859042    -0.77200
O1074       O  0.50758629  0.41685388  0.99144542    -0.75800
Zn1075     Zn  0.53041111  0.50188206  0.95843217     1.55700
O1076       O  0.91665872  0.50772608  0.49405918    -0.77200
Cd1077     Cd  0.99310631  0.46249981  0.52295914     1.59700
Cd1078     Cd  0.53957926  0.04594764  0.54352577     1.59600
O1079       O  0.49618432  0.45983957  0.57010132    -0.77200
O1080       O  0.00244689  0.51456733  0.99593899    -1.87700
Cd1081     Cd  0.94640252  0.03945014  0.98808900     1.59900
O1082       O  0.54400194  0.02072566  0.59531645    -0.77200
O1083       O  0.93787312  0.03734186  0.93297518    -0.75800
C1084       C  0.59544333  0.04644078  0.98100258     0.86700
C1085       C  0.52952970  0.41715827  0.96408006     0.86400
O1086       O  0.99099790  0.01703195  0.91123046    -0.74800
C1087       C  0.90989256  0.48028422  0.51560640     0.87200
O1088       O  0.57929293  0.02453894  0.95763211    -0.74900
C1089       C  0.52093205  0.47582524  0.59044419     0.87300
C1090       C  0.96924177  0.10132490  0.51359491     0.87600
O1091       O  0.51831836  0.09900589  0.55269123    -0.77300
O1092       O  0.66322396  0.49271267  0.73561623    -0.74800
C1093       C  0.72859162  0.01343801  0.84368557     0.86200
O1094       O  0.75198278  0.07173601  0.69898083    -0.75900
O1095       O  0.82999656  0.00299033  0.78374007    -0.77400
O1096       O  0.76227320  0.40158234  0.73378238    -0.77200
O1097       O  0.68449489  0.44114360  0.70970216    -0.75800
Zn1098     Zn  0.70234637  0.01924600  0.76017141     1.55700
O1099       O  0.79158147  0.42068574  0.78620863    -0.77200
Cd1100     Cd  0.73917413  0.44818738  0.71188422     1.59700
Cd1101     Cd  0.77484844  0.01984957  0.70660594     1.59600
O1102       O  0.75199378  0.44901314  0.65686062    -0.77200
O1103       O  0.74533960  0.99054076  0.74367939    -1.87700
Cd1104     Cd  0.78544336  0.47881425  0.78298544     1.59900
O1105       O  0.78030562  0.99229711  0.65542748    -0.77200
O1106       O  0.75626225  0.99374770  0.83578040    -0.75800
C1107       C  0.72529881  0.08861769  0.71354422     0.86700
C1108       C  0.65824891  0.46201383  0.71791648     0.86400
O1109       O  0.70585581  0.02527725  0.81823513    -0.74800
C1110       C  0.78130922  0.39498737  0.76337558     0.87200
O1111       O  0.70383762  0.07237387  0.73671435    -0.74900
C1112       C  0.77139446  0.47050229  0.63692993     0.87300
C1113       C  0.84395363  0.02426490  0.75885713     0.87600
O1114       O  0.82687975  0.03189636  0.72815372    -0.77300
O1115       O  0.83676424  0.23002232  0.51999671    -0.74800
C1116       C  0.76005628  0.27052201  0.90141102     0.86200
O1117       O  0.75472412  0.33213184  0.52917083    -0.75900
O1118       O  0.65726068  0.27105680  0.96776152    -0.77400
O1119       O  0.72595061  0.15818733  0.99368261    -0.77200
O1120       O  0.80580284  0.18228448  0.54469887    -0.75800
Zn1121     Zn  0.78871709  0.26558012  0.98152967     1.55700
O1122       O  0.69474742  0.18839282  0.94810864    -0.77200
Cd1123     Cd  0.75140680  0.19551496  0.52908718     1.59700
Cd1124     Cd  0.72260559  0.28288806  0.52776056     1.59600
O1125       O  0.72419769  0.20202389  0.57959330    -0.77200
O1126       O  0.74168286  0.24975932  0.00139036    -1.87700
Cd1127     Cd  0.70559179  0.24378243  0.95901652     1.59900
O1128       O  0.71331824  0.26315054  0.58212407    -0.77200
O1129       O  0.72691691  0.26617616  0.91140800    -0.75800
C1130       C  0.78687776  0.33890487  0.51656167     0.86700
C1131       C  0.83598624  0.19996602  0.53916238     0.86400
O1132       O  0.78751034  0.26582741  0.92423897    -0.74800
C1133       C  0.70567489  0.15830590  0.96350450     0.87200
O1134       O  0.80603874  0.31380799  0.50196738    -0.74900
C1135       C  0.71352236  0.23071524  0.59716511     0.87300
C1136       C  0.64728698  0.29420184  0.99226452     0.87600
O1137       O  0.67037043  0.29301049  0.50161776    -0.77300
O1138       O  0.51548725  0.34882539  0.76329467    -0.74800
C1139       C  0.89911914  0.26079007  0.78435911     0.86200
O1140       O  0.53295847  0.23616410  0.83980535    -0.75900
O1141       O  0.96016539  0.16220919  0.76407695    -0.77400
O1142       O  0.98010036  0.26129082  0.66556900    -0.77200
O1143       O  0.54381034  0.33262308  0.71117525    -0.75800
Zn1144     Zn  0.97895472  0.29036452  0.78662909     1.55700
O1145       O  0.94513563  0.21361316  0.68497390    -0.77200
Cd1146     Cd  0.53456450  0.27474177  0.71114646     1.59700
Cd1147     Cd  0.52385768  0.21931515  0.78434747     1.59600
O1148       O  0.58413723  0.24564153  0.71599730    -0.77200
O1149       O  0.99578941  0.24880457  0.75708926    -1.87700
Cd1150     Cd  0.95408198  0.21479648  0.74256328     1.59900
O1151       O  0.57540867  0.20625880  0.76398954    -0.77200
O1152       O  0.90704985  0.23209688  0.76594963    -0.75800
C1153       C  0.52969948  0.26801612  0.85480206     0.86700
C1154       C  0.53401405  0.35719103  0.73456508     0.86400
O1155       O  0.92309798  0.28602551  0.79309046    -0.74800
C1156       C  0.95595582  0.23588564  0.65937195     0.87200
O1157       O  0.51695258  0.29557170  0.83634291    -0.74900
C1158       C  0.59521460  0.21935339  0.73775439     0.87300
C1159       C  0.98474844  0.14748968  0.78529937     0.87600
O1160       O  0.48870425  0.17261287  0.78316689    -0.77300
C1161       C  0.62193001  0.44999126  0.70345218    -0.12700
C1162       C  0.59072677  0.46672647  0.71161284    -0.27900
H1163       H  0.62097017  0.42699615  0.68370558     0.16300
H1164       H  0.59142107  0.48914771  0.73206227     0.16900
C1165       C  0.54405046  0.39675452  0.72953391    -0.12700
C1166       C  0.54822014  0.41306338  0.69579543    -0.27900
H1167       H  0.54496443  0.41399753  0.75452295     0.16300
H1168       H  0.54585832  0.39617812  0.67058902     0.16900
C1169       C  0.52508811  0.46144743  0.62892332    -0.12700
C1170       C  0.55470470  0.46777120  0.65144613    -0.27900
H1171       H  0.50222550  0.44484199  0.63950967     0.12700
H1172       H  0.57815343  0.48345657  0.64080228     0.16900
C1173       C  0.69389348  0.12292373  0.94513566    -0.12700
C1174       C  0.70826920  0.09002901  0.95519734    -0.27900
H1175       H  0.67252209  0.12385733  0.92312027     0.16300
H1176       H  0.72986032  0.09001789  0.97712576     0.16900
C1177       C  0.70234123  0.04818804  0.89798808    -0.12700
C1178       C  0.72332939  0.02086775  0.88412835    -0.27900
H1179       H  0.68898116  0.06724324  0.87825777     0.16300
H1180       H  0.73819647  0.00242062  0.90319321     0.16900
C1181       C  0.63514068  0.05534993  0.97662883    -0.12700
C1182       C  0.65250843  0.04810968  0.94450383    -0.27900
H1183       H  0.65066592  0.06685746  0.00051144     0.16300
H1184       H  0.63611320  0.03800229  0.92048541     0.16900
C1185       C  0.94193989  0.19676669  0.60561624    -0.12700
C1186       C  0.94255144  0.23090794  0.62057601    -0.27900
H1187       H  0.94633379  0.17308299  0.62433840     0.16300
H1188       H  0.94066053  0.25525903  0.60239451     0.16900
C1189       C  0.90361945  0.20140709  0.54641195    -0.12700
C1190       C  0.87110122  0.18557558  0.55546005    -0.27900
H1191       H  0.90339386  0.22412495  0.52601833     0.16300
H1192       H  0.87041059  0.16241224  0.57520041     0.16900
C1193       C  0.95405143  0.13807541  0.52050952    -0.12700
C1194       C  0.95042443  0.15053825  0.55554505    -0.27900
H1195       H  0.94555000  0.15516652  0.49659510     0.16300
H1196       H  0.95741340  0.13190260  0.57880014     0.16900
C1197       C  0.79118817  0.46045697  0.51653859    -0.14800
C1198       C  0.77041873  0.47877407  0.49716055     0.09200
C1199       C  0.73113288  0.00270895  0.98201068     0.11100
C1200       C  0.71248277  0.02372827  0.96332150    -0.15700
C1201       C  0.80947868  0.45819163  0.58258033    -0.12700
C1202       C  0.77615950  0.45947842  0.59797479    -0.27900
H1203       H  0.83351975  0.46885616  0.59833439     0.16300
H1204       H  0.75240457  0.44698207  0.58324612     0.16900
C1205       C  0.80228703  0.37706497  0.51653093    -0.12700
C1206       C  0.80062859  0.39973668  0.54615624    -0.27900
H1207       H  0.81638549  0.38652077  0.49160310     0.16300
H1208       H  0.78845787  0.38894166  0.57167596     0.16900
C1209       C  0.87123913  0.47536510  0.52669331    -0.12700
C1210       C  0.85493350  0.44242338  0.53435637    -0.27900
H1211       H  0.85468490  0.50032153  0.52678099     0.16300
H1212       H  0.87081977  0.41712239  0.53256651     0.16900
C1213       C  0.72142733  0.12863433  0.70371410    -0.12700
C1214       C  0.69071550  0.14876304  0.70791612    -0.27900
H1215       H  0.74525120  0.14218621  0.69134603     0.16300
H1216       H  0.66635673  0.13505489  0.71901257     0.16900
C1217       C  0.65016475  0.20493819  0.70058865    -0.12700
C1218       C  0.63244344  0.20367349  0.73336812    -0.27900
H1219       H  0.63603097  0.21721135  0.67627347     0.16300
H1220       H  0.64535070  0.18995313  0.75752837     0.16900
C1221       C  0.69967214  0.19389121  0.65478882    -0.12700
C1222       C  0.70156122  0.22693499  0.63658223    -0.27900
H1223       H  0.70610457  0.16889110  0.63941146     0.16300
H1224       H  0.69475955  0.25213993  0.65140623     0.16900
C1225       C  0.53030870  0.28303412  0.97723802    -0.14800
C1226       C  0.51275317  0.26308523  0.99755715     0.09200
C1227       C  0.98957619  0.23388134  0.52826006     0.11100
C1228       C  0.96937824  0.21419569  0.54615406    -0.15700
C1229       C  0.58983500  0.30700882  0.95670592    -0.12700
C1230       C  0.60931879  0.30858712  0.98946575    -0.27900
H1231       H  0.60420997  0.29942214  0.93153495     0.16300
H1232       H  0.59629681  0.31773388  0.01482892     0.16900
C1233       C  0.53504840  0.30514323  0.91301235    -0.12700
C1234       C  0.54102188  0.27312829  0.89459014    -0.27900
H1235       H  0.52066440  0.32750846  0.89835196     0.16300
H1236       H  0.55475490  0.25031747  0.90915552     0.16900
C1237       C  0.54401033  0.38164157  0.95020557    -0.12700
C1238       C  0.53604297  0.34910518  0.96726354    -0.27900
H1239       H  0.56128382  0.38207863  0.92576955     0.16300
H1240       H  0.51880194  0.34966322  0.99179291     0.16900
C1241       C  0.52534085  0.47453229  0.71070178    -0.14800
C1242       C  0.50460210  0.49125001  0.72956977     0.09200
C1243       C  0.97525763  0.01751892  0.74542017     0.11100
C1244       C  0.96041217  0.03322470  0.76977892    -0.15700
C1245       C  0.94569766  0.09162755  0.79667104    -0.12700
C1246       C  0.97931755  0.10857864  0.79760653    -0.27900
H1247       H  0.92128022  0.10792376  0.79021007     0.16300
H1248       H  0.00365385  0.09275172  0.80554145     0.16900
C1249       C  0.88098062  0.04107506  0.76498078    -0.12700
C1250       C  0.90125835  0.03633939  0.79687434    -0.27900
H1251       H  0.89257593  0.05704782  0.74198515     0.16300
H1252       H  0.88950417  0.02017173  0.81965311     0.16900
C1253       C  0.95920231  0.03551453  0.83682812    -0.12700
C1254       C  0.94449295  0.04350877  0.86949767    -0.27900
H1255       H  0.98355248  0.01818242  0.83644706     0.16300
H1256       H  0.91974190  0.06026716  0.86936875     0.16900
C1257       C  0.78006280  0.27453629  0.78126592    -0.14800
C1258       C  0.76033012  0.25467577  0.76154414     0.09200
C1259       C  0.73643704  0.23148090  0.73906758     0.11100
C1260       C  0.71551383  0.21226243  0.71994961    -0.15700
C1261       C  0.79179910  0.33903207  0.80297076    -0.12700
C1262       C  0.79230232  0.35627482  0.76945121    -0.27900
H1263       H  0.78342956  0.35433888  0.82747839     0.16300
H1264       H  0.79879759  0.34038148  0.74469025     0.16900
C1265       C  0.86078450  0.26365599  0.79572939    -0.12700
C1266       C  0.84371041  0.29628300  0.79717579    -0.27900
H1267       H  0.84519770  0.23798477  0.80026145     0.16300
H1268       H  0.85920449  0.32163087  0.79074313     0.16900
C1269       C  0.79893140  0.28553873  0.84723972    -0.12700
C1270       C  0.76558088  0.28224610  0.86233724    -0.27900
H1271       H  0.82330789  0.27846205  0.86419339     0.16300
H1272       H  0.74116273  0.28881900  0.84525224     0.16900
C1273       C  0.80540661  0.79518009  0.30584016     0.01200
C1274       C  0.94004698  0.55546279  0.29853718     0.01200
C1275       C  0.55632621  0.81500231  0.45832345     0.01200
C1276       C  0.68933197  0.69194064  0.19138535     0.01200
C1277       C  0.80034773  0.94152878  0.04985422     0.01200
C1278       C  0.94448524  0.70908342  0.05135705     0.01200
C1279       C  0.69407604  0.54240970  0.43992800     0.01200
C1280       C  0.54179187  0.95081278  0.19177513     0.01200
O1281       O  0.53997716  0.95089407  0.45465776    -0.74800
C1282       C  0.98696543  0.52384283  0.39262141     0.86200
O1283       O  0.59173961  0.53747908  0.02192559    -0.75900
O1284       O  0.95580382  0.59364096  0.99033010    -0.77400
O1285       O  0.91966507  0.96721602  0.04065856    -0.77200
O1286       O  0.51664660  0.92100081  0.50388916    -0.75800
Zn1287     Zn  0.53121164  0.00598189  0.46202236     1.55700
O1288       O  0.90043250  0.01891522  0.01213129    -0.77200
Cd1289     Cd  0.97683857  0.97151923  0.03482894     1.59700
Cd1290     Cd  0.53891713  0.53219925  0.04427034     1.59600
O1291       O  0.51043375  0.96973101  0.07591084    -0.77200
O1292       O  0.00444853  0.00537597  0.49516877    -1.87700
Cd1293     Cd  0.96333664  0.53167375  0.47301061     1.59900
O1294       O  0.53957806  0.49742288  0.09183871    -0.77200
O1295       O  0.96198730  0.53136899  0.41561009    -0.75800
C1296       C  0.59018545  0.54196469  0.46497087     0.86700
C1297       C  0.53407965  0.92092682  0.47302737     0.86400
O1298       O  0.01800890  0.51105481  0.40347303    -0.74800
C1299       C  0.89405771  0.98936375  0.03047148     0.87200
O1300       O  0.56483742  0.53174126  0.44179070    -0.74900
C1301       C  0.52570062  0.99653852  0.09447770     0.87300
C1302       C  0.97415278  0.61417284  0.01289961     0.87600
O1303       O  0.51984880  0.58554260  0.05939547    -0.77300
O1304       O  0.65057886  0.99447513  0.23776267    -0.74800
C1305       C  0.72461790  0.50852557  0.34034247     0.86200
O1306       O  0.75274125  0.57487821  0.19710335    -0.75900
O1307       O  0.82931769  0.50928464  0.28209823    -0.77400
O1308       O  0.73947846  0.89654160  0.24512162    -0.77200
O1309       O  0.67119065  0.94333859  0.21075102    -0.75800
Zn1310     Zn  0.70327380  0.52025042  0.25647118     1.55700
O1311       O  0.78121204  0.91479387  0.28841235    -0.77200
Cd1312     Cd  0.72529982  0.94434999  0.21848001     1.59700
Cd1313     Cd  0.77617348  0.52393947  0.20400614     1.59600
O1314       O  0.74128408  0.94111428  0.16490061    -0.77200
O1315       O  0.74727947  0.49386029  0.24013681    -1.87700
Cd1316     Cd  0.77600551  0.97312338  0.28517651     1.59900
O1317       O  0.78139735  0.49891195  0.15226179    -0.77200
O1318       O  0.75365251  0.49124245  0.33199832    -0.75800
C1319       C  0.72521107  0.59096243  0.21072996     0.86700
C1320       C  0.64535400  0.96489114  0.21806012     0.86400
O1321       O  0.70291056  0.52238890  0.31505539    -0.74800
C1322       C  0.76292971  0.88916558  0.27103109     0.87200
O1323       O  0.70338402  0.57418241  0.23333331    -0.74900
C1324       C  0.75770948  0.96378250  0.14358963     0.87300
C1325       C  0.84414706  0.52876820  0.25628219     0.87600
O1326       O  0.82798591  0.53501328  0.22486130    -0.77300
O1327       O  0.83713326  0.73873300  0.00866382    -0.74800
C1328       C  0.77333907  0.74812878  0.39932218     0.86200
O1329       O  0.74619755  0.83382700  0.02274598    -0.75900
O1330       O  0.66795022  0.74281364  0.45770355    -0.77400
O1331       O  0.73722479  0.64665570  0.51516516    -0.77200
O1332       O  0.80945347  0.69006342  0.03552648    -0.75800
Zn1333     Zn  0.79724746  0.75676890  0.48238901     1.55700
O1334       O  0.71238923  0.66165244  0.45929672    -0.77200
Cd1335     Cd  0.75337243  0.69942559  0.02128877     1.59700
Cd1336     Cd  0.71774437  0.78291934  0.01928527     1.59600
O1337       O  0.72578252  0.70327572  0.07307992    -0.77200
O1338       O  0.74982290  0.73866904  0.50039774    -1.87700
Cd1339     Cd  0.71918394  0.71906241  0.45763302     1.59900
O1340       O  0.70867737  0.76274396  0.07383150    -0.77200
O1341       O  0.74247513  0.73334326  0.40757976    -0.75800
C1342       C  0.77875892  0.84298551  0.01286391     0.86700
C1343       C  0.83860516  0.70895785  0.02818399     0.86400
O1344       O  0.79770368  0.75695489  0.42457187    -0.74800
C1345       C  0.72055271  0.63768368  0.48460777     0.87200
O1346       O  0.80049203  0.82007797  0.99863386    -0.74900
C1347       C  0.71197601  0.73100881  0.08998544     0.87300
C1348       C  0.65421418  0.77134794  0.47266148     0.87600
O1349       O  0.66588833  0.78986638  0.99151198    -0.77300
O1350       O  0.51347619  0.84677866  0.27008611    -0.74800
C1351       C  0.90129780  0.76039740  0.27795483     0.86200
O1352       O  0.53758811  0.73666886  0.34543222    -0.75900
O1353       O  0.96328487  0.66525153  0.25089993    -0.77400
O1354       O  0.99082829  0.77194988  0.16166688    -0.77200
O1355       O  0.54292325  0.83151632  0.21844611    -0.75800
Zn1356     Zn  0.98092208  0.79032587  0.28474018     1.55700
O1357       O  0.95356311  0.72337709  0.17301375    -0.77200
Cd1358     Cd  0.53585631  0.77401380  0.21740590     1.59700
Cd1359     Cd  0.52822979  0.71729045  0.28996875     1.59600
O1360       O  0.58608225  0.74709620  0.21970582    -0.77200
O1361       O  0.99883360  0.75185693  0.25204277    -1.87700
Cd1362     Cd  0.95780607  0.71946719  0.23178579     1.59900
O1363       O  0.58009131  0.70657514  0.26717773    -0.77200
O1364       O  0.90929163  0.73505747  0.25495994    -0.75800
C1365       C  0.53329744  0.76864751  0.36027321     0.86700
C1366       C  0.53178241  0.85568178  0.24149691     0.86400
O1367       O  0.92534350  0.78379641  0.29083633    -0.74800
C1368       C  0.96754511  0.74742612  0.15062647     0.87200
O1369       O  0.51822350  0.79512698  0.34213208    -0.74900
C1370       C  0.59851029  0.72060025  0.24020073     0.87300
C1371       C  0.98647918  0.65002160  0.27355145     0.87600
O1372       O  0.49468902  0.66819503  0.28800547    -0.77300
C1373       C  0.60966575  0.95356722  0.20081615    -0.12700
C1374       C  0.57723536  0.96792774  0.20851439    -0.27900
H1375       H  0.61002835  0.93040192  0.18129481     0.16300
H1376       H  0.57627568  0.99055268  0.22862845     0.16900
C1377       C  0.53881682  0.89543036  0.23488964    -0.12700
C1378       C  0.53965912  0.90926631  0.19992607    -0.27900
H1379       H  0.53911061  0.91418582  0.25872201     0.16300
H1380       H  0.53753125  0.88985116  0.17661898     0.16900
C1381       C  0.53661362  0.99106185  0.13419741    -0.12700
C1382       C  0.53799387  0.95703144  0.14969376    -0.27900
H1383       H  0.54182162  0.01546325  0.15155669     0.12700
H1384       H  0.53374700  0.93311045  0.13142903     0.16900
C1385       C  0.71019539  0.59829637  0.47928414    -0.12700
C1386       C  0.70415791  0.58332861  0.44510686    -0.27900
H1387       H  0.70882450  0.58064874  0.50413167     0.16300
H1388       H  0.70709210  0.60094542  0.42036575     0.16900
C1389       C  0.69323961  0.53392846  0.39736726    -0.12700
C1390       C  0.71816572  0.51192534  0.38109504    -0.27900
H1391       H  0.67393181  0.54913314  0.37936841     0.16300
H1392       H  0.73790330  0.49685450  0.39854819     0.16900
C1393       C  0.62605013  0.55277814  0.44908978    -0.12700
C1394       C  0.65692997  0.53391667  0.45764948    -0.27900
H1395       H  0.62630990  0.57347832  0.42672211     0.16300
H1396       H  0.65532669  0.51209766  0.47895347     0.16900
C1397       C  0.94228535  0.71762930  0.09310182    -0.12700
C1398       C  0.95983805  0.74633060  0.10995579    -0.27900
H1399       H  0.92785158  0.69739995  0.11045686     0.16300
H1400       H  0.97341969  0.76764757  0.09332861     0.16900
C1401       C  0.90653148  0.71446571  0.03276563    -0.12700
C1402       C  0.87517890  0.69695784  0.04338459    -0.27900
H1403       H  0.90440141  0.73551979  0.01071903     0.16300
H1404       H  0.87633944  0.67520472  0.06468769     0.16900
C1405       C  0.96244528  0.65295475  0.01530350    -0.12700
C1406       C  0.95800797  0.66947241  0.04834112    -0.27900
H1407       H  0.95376997  0.66710058  0.98953368     0.16300
H1408       H  0.96485036  0.65387659  0.07386761     0.16900
C1409       C  0.77634283  0.96259673  0.02331020    -0.14800
C1410       C  0.75539651  0.98040996  0.00370466     0.09200
C1411       C  0.74475353  0.50105552  0.47711546     0.11100
C1412       C  0.72224927  0.51991002  0.46052863    -0.15700
C1413       C  0.79458134  0.95578746  0.08893610    -0.12700
C1414       C  0.76180933  0.95283329  0.10488232    -0.27900
H1415       H  0.81776653  0.96786369  0.10504361     0.16300
H1416       H  0.73874106  0.93882426  0.09043656     0.16900
C1417       C  0.79179732  0.88153981  0.01595282    -0.12700
C1418       C  0.78934602  0.90067583  0.04776860    -0.27900
H1419       H  0.80482747  0.89422356  0.99180419     0.16300
H1420       H  0.77829167  0.88660118  0.07226118     0.16900
C1421       C  0.85561221  0.98180493  0.03978580    -0.12700
C1422       C  0.84070162  0.94740577  0.04071056    -0.27900
H1423       H  0.83805256  0.00567183  0.04351606     0.16300
H1424       H  0.85783647  0.92358724  0.03522789     0.16900
C1425       C  0.72108324  0.63066432  0.20004531    -0.12700
C1426       C  0.69048876  0.65085326  0.20368404    -0.27900
H1427       H  0.74489508  0.64404151  0.18745107     0.16300
H1428       H  0.66614726  0.63744190  0.21516294     0.16900
C1429       C  0.65108464  0.70748879  0.19866389    -0.12700
C1430       C  0.63555392  0.70566446  0.23284154    -0.27900
H1431       H  0.63562921  0.72010250  0.17539667     0.16300
H1432       H  0.65003299  0.69158443  0.25584657     0.16900
C1433       C  0.69844257  0.69504250  0.14927537    -0.12700
C1434       C  0.70020727  0.72756871  0.12993232    -0.27900
H1435       H  0.70446138  0.66969075  0.13430036     0.16300
H1436       H  0.69344641  0.75304699  0.14428596     0.16900
C1437       C  0.53689503  0.78615168  0.47967209    -0.14800
C1438       C  0.51791529  0.76385292  0.49545699     0.09200
C1439       C  0.99227757  0.75383663  0.01449400     0.11100
C1440       C  0.97133289  0.73389245  0.03172872    -0.15700
C1441       C  0.59783126  0.81161367  0.46713986    -0.12700
C1442       C  0.61556072  0.77939476  0.46180478    -0.27900
H1443       H  0.61295125  0.83501428  0.47970358     0.16300
H1444       H  0.60054968  0.75595999  0.44974072     0.16900
C1445       C  0.54657336  0.80898331  0.41640905    -0.12700
C1446       C  0.54542563  0.77488842  0.39980729    -0.27900
H1447       H  0.53813182  0.83299539  0.39974860     0.16300
H1448       H  0.55160747  0.75004715  0.41601328     0.16900
C1449       C  0.54912954  0.88577116  0.45785709    -0.12700
C1450       C  0.54146223  0.85204185  0.47259620    -0.27900
H1451       H  0.56695231  0.88772410  0.43389262     0.16300
H1452       H  0.52289036  0.85119699  0.49612241     0.16900
C1453       C  0.51109998  0.96884338  0.20957264    -0.14800
C1454       C  0.49160137  0.98656040  0.22888506     0.09200
C1455       C  0.97658509  0.51094481  0.25334441     0.11100
C1456       C  0.96043451  0.53108417  0.27369191    -0.15700
C1457       C  0.94608129  0.59551839  0.28603055    -0.12700
C1458       C  0.98000359  0.61145646  0.28631256    -0.27900
H1459       H  0.92248411  0.61157912  0.27620416     0.16300
H1460       H  0.00345449  0.59605173  0.29754596     0.16900
C1461       C  0.88150928  0.54435872  0.26168531    -0.12700
C1462       C  0.89973321  0.54394066  0.29497217    -0.27900
H1463       H  0.89508321  0.55563296  0.23715519     0.16300
H1464       H  0.88575042  0.53325033  0.31955078     0.16900
C1465       C  0.95202014  0.55118231  0.33954945    -0.12700
C1466       C  0.97975231  0.52952647  0.35227373    -0.27900
H1467       H  0.93617695  0.56637356  0.35973974     0.16300
H1468       H  0.99757195  0.51556176  0.33307983     0.16900
C1469       C  0.78258465  0.77117480  0.27932660    -0.14800
C1470       C  0.76307602  0.75246658  0.25821383     0.09200
C1471       C  0.73885158  0.73130441  0.23406558     0.11100
C1472       C  0.71721353  0.71359042  0.21425245    -0.15700
C1473       C  0.79448412  0.83614728  0.30322367    -0.12700
C1474       C  0.76871183  0.84935260  0.27891209    -0.27900
H1475       H  0.81048217  0.85593699  0.32031102     0.16300
H1476       H  0.75210594  0.83038309  0.26164186     0.16900
C1477       C  0.86299757  0.76145013  0.29033067    -0.12700
C1478       C  0.84560126  0.79360510  0.29512448    -0.27900
H1479       H  0.84788647  0.73523353  0.29296500     0.16300
H1480       H  0.86075324  0.81947225  0.28993941     0.16900
C1481       C  0.80240504  0.78279724  0.34689357    -0.12700
C1482       C  0.77943852  0.75567539  0.35909140    -0.27900
H1483       H  0.81890408  0.79831242  0.36764628     0.16300
H1484       H  0.76144249  0.74074724  0.33931036     0.16900
C1485       C  0.80845052  0.79193883  0.79127338     0.01200
C1486       C  0.94924443  0.54945210  0.79260065     0.01200
C1487       C  0.54973434  0.81075983  0.95274629     0.01200
C1488       C  0.68571203  0.68726776  0.69307726     0.01200
C1489       C  0.81148506  0.93440803  0.54976075     0.01200
C1490       C  0.94726473  0.69784173  0.55847485     0.01200
C1491       C  0.69751365  0.54812655  0.93874456     0.01200
C1492       C  0.53906772  0.95169932  0.71217437     0.01200
O1493       O  0.53826890  0.94559426  0.95028474    -0.74800
C1494       C  0.96553864  0.53481159  0.89914873     0.86200
O1495       O  0.58525869  0.54227481  0.50050827    -0.75900
O1496       O  0.95995389  0.58597378  0.48759885    -0.77400
O1497       O  0.93261719  0.95435200  0.52972076    -0.77200
O1498       O  0.50661599  0.91765349  0.99548153    -0.75800
Zn1499     Zn  0.52922247  0.00007763  0.95299283     1.55700
O1500       O  0.91267635  0.00377202  0.49719541    -0.77200
Cd1501     Cd  0.99075093  0.95823763  0.52268830     1.59700
Cd1502     Cd  0.53511829  0.53622823  0.52978986     1.59600
O1503       O  0.51614788  0.96494052  0.59006912    -0.77200
O1504       O  0.99259439  0.01486065  0.00360516    -1.87700
Cd1505     Cd  0.95564591  0.53828085  0.98134895     1.59900
O1506       O  0.54034594  0.50355761  0.57892042    -0.77200
O1507       O  0.94363691  0.53584818  0.92607657    -0.75800
C1508       C  0.60299514  0.53494460  0.98830329     0.86700
C1509       C  0.52819734  0.91630024  0.96757632     0.86400
O1510       O  0.99930087  0.52554083  0.90386454    -0.74800
C1511       C  0.90663699  0.97592444  0.51847774     0.87200
O1512       O  0.58142062  0.52511969  0.96107298    -0.74900
C1513       C  0.53399928  0.98962747  0.60934823     0.87300
C1514       C  0.97486904  0.60498116  0.51391222     0.87600
O1515       O  0.51593898  0.58944017  0.54485035    -0.77300
O1516       O  0.65320795  0.99163688  0.74320907    -0.74800
C1517       C  0.73326147  0.51423844  0.84012346     0.86200
O1518       O  0.75837240  0.57584594  0.69655398    -0.75900
O1519       O  0.83706922  0.50466669  0.77836502    -0.77400
O1520       O  0.74456843  0.89689000  0.74832836    -0.77200
O1521       O  0.67249398  0.94142958  0.71341752    -0.75800
Zn1522     Zn  0.70959090  0.52059129  0.75616597     1.55700
O1523       O  0.78627718  0.91741803  0.79088574    -0.77200
Cd1524     Cd  0.72853782  0.94374251  0.71854796     1.59700
Cd1525     Cd  0.78169412  0.52450553  0.70255199     1.59600
O1526       O  0.74713333  0.94035990  0.66452690    -0.77200
O1527       O  0.75323394  0.49409966  0.73933914    -1.87700
Cd1528     Cd  0.77912639  0.97557009  0.78678648     1.59900
O1529       O  0.78615501  0.50032504  0.64987108    -0.77200
O1530       O  0.76221174  0.49661532  0.83197710    -0.75800
C1531       C  0.73051192  0.59081620  0.71080262     0.86700
C1532       C  0.64665813  0.96166210  0.72451661     0.86400
O1533       O  0.71007955  0.52512805  0.81463892    -0.74800
C1534       C  0.76831583  0.89088243  0.77460741     0.87200
O1535       O  0.70962595  0.57327517  0.73350165    -0.74900
C1536       C  0.76700424  0.96113782  0.64395288     0.87300
C1537       C  0.85136996  0.52518410  0.75296422     0.87600
O1538       O  0.83393225  0.53416845  0.72293129    -0.77300
O1539       O  0.83981594  0.72766324  0.50811516    -0.74800
C1540       C  0.79134895  0.77303849  0.89779689     0.86200
O1541       O  0.75540250  0.82702189  0.52953436    -0.75900
O1542       O  0.67201103  0.75727573  0.93888333    -0.77400
O1543       O  0.73375809  0.65538274  0.98677677    -0.77200
O1544       O  0.81271765  0.68971988  0.54924609    -0.75800
Zn1545     Zn  0.79780314  0.76783000  0.98218412     1.55700
O1546       O  0.72332277  0.68211727  0.93051868    -0.77200
Cd1547     Cd  0.75753350  0.69634706  0.53599332     1.59700
Cd1548     Cd  0.72211106  0.77920343  0.52603219     1.59600
O1549       O  0.72977309  0.70456857  0.58420161    -0.77200
O1550       O  0.74898364  0.74714011  0.99133039    -1.87700
Cd1551     Cd  0.72614209  0.73859303  0.94039926     1.59900
O1552       O  0.70750113  0.76198406  0.57988517    -0.77200
O1553       O  0.75732184  0.76295316  0.89758689    -0.75800
C1554       C  0.78655116  0.83460785  0.51513900     0.86700
C1555       C  0.84161232  0.70356624  0.53482566     0.86400
O1556       O  0.81082060  0.77300704  0.92797514    -0.74800
C1557       C  0.72515605  0.65338066  0.95159208     0.87200
O1558       O  0.80412399  0.81074318  0.49669867    -0.74900
C1559       C  0.71173874  0.73125188  0.59755074     0.87300
C1560       C  0.65262342  0.77670587  0.96054162     0.87600
O1561       O  0.67216483  0.79093962  0.49705519    -0.77300
O1562       O  0.50445613  0.83973751  0.75346272    -0.74800
C1563       C  0.91579209  0.78054993  0.78263475     0.86200
O1564       O  0.53051794  0.73365930  0.84060011    -0.75900
O1565       O  0.96436438  0.66789070  0.76199192    -0.77400
O1566       O  0.01245378  0.74700243  0.66622235    -0.77200
O1567       O  0.54257242  0.81685376  0.71146568    -0.75800
Zn1568     Zn  0.99994829  0.79689945  0.78291913     1.55700
O1569       O  0.95825663  0.72207156  0.68214747    -0.77200
Cd1570     Cd  0.53119524  0.76104091  0.71135615     1.59700
Cd1571     Cd  0.52358762  0.71102656  0.78733131     1.59600
O1572       O  0.57975885  0.73297035  0.71548821    -0.77200
O1573       O  0.01025177  0.74999331  0.75824742    -1.87700
Cd1574     Cd  0.96325653  0.72298001  0.74162967     1.59900
O1575       O  0.57605856  0.69941873  0.76825862    -0.77200
O1576       O  0.91806192  0.75028615  0.76407923    -0.75800
C1577       C  0.52522906  0.76597271  0.85390023     0.86700
C1578       C  0.52856999  0.84424091  0.72802073     0.86400
O1579       O  0.94436764  0.80055271  0.79073218    -0.74800
C1580       C  0.98107155  0.73302210  0.65741890     0.87200
O1581       O  0.50976577  0.79155486  0.83418783    -0.74900
C1582       C  0.59343548  0.71017029  0.73936545     0.87300
C1583       C  0.98815687  0.65032386  0.78227814     0.87600
O1584       O  0.49277664  0.66119572  0.78918151    -0.77300
C1585       C  0.60873075  0.94885668  0.71373277    -0.12700
C1586       C  0.57782426  0.96403191  0.72601366    -0.27900
H1587       H  0.60643055  0.92623029  0.69378649     0.16300
H1588       H  0.58070612  0.98726675  0.74540106     0.16900
C1589       C  0.54140486  0.88161972  0.71584319    -0.12700
C1590       C  0.52771789  0.91365363  0.72808642    -0.27900
H1591       H  0.56174563  0.88249735  0.69410965     0.16300
H1592       H  0.50627560  0.91210456  0.74886068     0.16900
C1593       C  0.54271441  0.98403011  0.64977726    -0.12700
C1594       C  0.53469349  0.95287642  0.66930695    -0.27900
H1595       H  0.55462839  0.00775633  0.66485827     0.12700
H1596       H  0.52312121  0.92883490  0.65450229     0.16900
C1597       C  0.71681068  0.61689681  0.93378220    -0.12700
C1598       C  0.70777561  0.58667942  0.95412971    -0.27900
H1599       H  0.71651205  0.61564637  0.90334331     0.16300
H1600       H  0.70697318  0.58991585  0.98444974     0.16900
C1601       C  0.70328300  0.54406051  0.89588689    -0.12700
C1602       C  0.72764681  0.52048795  0.88083553    -0.27900
H1603       H  0.68614947  0.56063927  0.87687049     0.16300
H1604       H  0.74586287  0.50460347  0.89925779     0.16900
C1605       C  0.64248830  0.54269871  0.98112313    -0.12700
C1606       C  0.65690035  0.54016097  0.94655853    -0.27900
H1607       H  0.66034424  0.54996230  0.00505781     0.16300
H1608       H  0.63859066  0.53267397  0.92297440     0.16900
C1609       C  0.94818701  0.70665339  0.60061418    -0.12700
C1610       C  0.97304591  0.73019840  0.61677704    -0.27900
H1611       H  0.92992648  0.69065843  0.61851587     0.16300
H1612       H  0.99191159  0.74602209  0.59949701     0.16900
C1613       C  0.90979404  0.70727923  0.54057558    -0.12700
C1614       C  0.87779116  0.69146544  0.55076569    -0.27900
H1615       H  0.90876299  0.72863867  0.51874049     0.16300
H1616       H  0.87803872  0.67016911  0.57257655     0.16900
C1617       C  0.96005575  0.64219122  0.51963405    -0.12700
C1618       C  0.95717549  0.65727541  0.55376142    -0.27900
H1619       H  0.95075199  0.65768884  0.49490043     0.16300
H1620       H  0.96484638  0.64077611  0.57842894     0.16900
C1621       C  0.78734074  0.95516065  0.52267630    -0.14800
C1622       C  0.76572523  0.97288449  0.50344605     0.09200
C1623       C  0.74173430  0.50183232  0.97811467     0.11100
C1624       C  0.72057439  0.52156576  0.96069407    -0.15700
C1625       C  0.80609378  0.95051879  0.58881561    -0.12700
C1626       C  0.77313940  0.94843369  0.60540124    -0.27900
H1627       H  0.82947946  0.96319417  0.60401593     0.16300
H1628       H  0.75021597  0.93405999  0.59110649     0.16900
C1629       C  0.80231305  0.87255944  0.51805216    -0.12700
C1630       C  0.79925438  0.89355387  0.54889277    -0.27900
H1631       H  0.81674319  0.88369406  0.49401168     0.16300
H1632       H  0.78678774  0.88104457  0.57346622     0.16900
C1633       C  0.86819178  0.97093352  0.53106477    -0.12700
C1634       C  0.85225244  0.93796177  0.53938429    -0.27900
H1635       H  0.85137100  0.99569530  0.53123955     0.16300
H1636       H  0.86857042  0.91296141  0.53736440     0.16900
C1637       C  0.72369528  0.62997161  0.70065742    -0.12700
C1638       C  0.69117244  0.64674057  0.70477364    -0.27900
H1639       H  0.74623500  0.64552140  0.68809799     0.16300
H1640       H  0.66825178  0.63082643  0.71616458     0.16900
C1641       C  0.64643814  0.69890710  0.69966110    -0.12700
C1642       C  0.63082745  0.69627638  0.73350515    -0.27900
H1643       H  0.63037783  0.71005731  0.67600258     0.16300
H1644       H  0.64588727  0.68388307  0.75713716     0.16900
C1645       C  0.69468735  0.69257692  0.65188975    -0.12700
C1646       C  0.69594295  0.72635610  0.63499545    -0.27900
H1647       H  0.70271520  0.66832161  0.63614173     0.16300
H1648       H  0.68707676  0.75084533  0.64980054     0.16900
C1649       C  0.53245725  0.78071346  0.97480931    -0.14800
C1650       C  0.51579867  0.75878006  0.99383936     0.09200
C1651       C  0.99635490  0.73610802  0.51815963     0.11100
C1652       C  0.97513577  0.71956036  0.53776463    -0.15700
C1653       C  0.59178120  0.80971871  0.96028456    -0.12700
C1654       C  0.61299743  0.78121754  0.94974978    -0.27900
H1655       H  0.60489825  0.83225548  0.97624322     0.16300
H1656       H  0.60092144  0.75916875  0.93271092     0.16900
C1657       C  0.53852982  0.80599435  0.91085650    -0.12700
C1658       C  0.53736990  0.77250229  0.89356076    -0.27900
H1659       H  0.52917001  0.83016334  0.89497462     0.16300
H1660       H  0.54505568  0.74783176  0.90947671     0.16900
C1661       C  0.54308391  0.88070460  0.95388141    -0.12700
C1662       C  0.53408144  0.84704260  0.96774812    -0.27900
H1663       H  0.56239268  0.88230998  0.93110941     0.16300
H1664       H  0.51458111  0.84581458  0.99044471     0.16900
C1665       C  0.51327204  0.97868329  0.72661037    -0.14800
C1666       C  0.49325629  0.00119277  0.73948952     0.09200
C1667       C  0.98917319  0.51315744  0.74417375     0.11100
C1668       C  0.97061410  0.53163593  0.76378451    -0.15700
C1669       C  0.95114415  0.59154645  0.78709287    -0.12700
C1670       C  0.98347809  0.61025283  0.79021402    -0.27900
H1671       H  0.92614077  0.60665290  0.77990624     0.16300
H1672       H  0.00810926  0.59521385  0.79891277     0.16900
C1673       C  0.88930387  0.53966640  0.75754707    -0.12700
C1674       C  0.90984796  0.53462492  0.78899370    -0.27900
H1675       H  0.90081611  0.55533056  0.73429075     0.16300
H1676       H  0.89817295  0.51893126  0.81214775     0.16900
C1677       C  0.96635277  0.53811366  0.83025142    -0.12700
C1678       C  0.95050627  0.54637613  0.86237916    -0.27900
H1679       H  0.99159693  0.52204203  0.83129392     0.16300
H1680       H  0.92468031  0.56138774  0.86160548     0.16900
C1681       C  0.78343736  0.77454974  0.76282311    -0.14800
C1682       C  0.76084450  0.75625049  0.74538972     0.09200
C1683       C  0.73386863  0.73225391  0.72929383     0.11100
C1684       C  0.71140519  0.71133037  0.71506080    -0.15700
C1685       C  0.80601327  0.83436841  0.78673084    -0.12700
C1686       C  0.77327882  0.85176799  0.78667311    -0.27900
H1687       H  0.83062314  0.85064035  0.78046018     0.16300
H1688       H  0.74826918  0.83519914  0.79031849     0.16900
C1689       C  0.87922429  0.79345329  0.79522193    -0.12700
C1690       C  0.84707765  0.77708131  0.78380462    -0.27900
H1691       H  0.87876384  0.81800531  0.81279469     0.16300
H1692       H  0.84880065  0.75308348  0.76545609     0.16900
C1693       C  0.79359229  0.77861044  0.82889904    -0.12700
C1694       C  0.80903447  0.78590081  0.86273383    -0.27900
H1695       H  0.76804862  0.76213668  0.82851091     0.16300
H1696       H  0.83509023  0.80119433  0.86479090     0.16900
loop_ 
_geom_bond_atom_site_label_1 
_geom_bond_atom_site_label_2 
_geom_bond_distance 
_geom_bond_site_symmetry_2 
_ccdc_geom_bond_type 
C1          C197   1.493       .  S
C1          C201   1.535       .  S
C1          C206   1.523       .  S
C1          C209   1.525       .  S
C2          C184   1.462       .  S
C2          C185   1.523       .  S
C2          C190   1.521       .  S
C2          C193   1.521       .  S
C3          C165   1.472       .  S
C3          C169   1.524       .  S
C3          C173   1.525       .  S
C3          C178   1.516       .  S
C4          C200   1.484       .  S
C4          C154   1.526       .  S
C4          C157   1.529       .  S
C4          C161   1.529       .  S
C5          C137   1.477       .  S
C5          C141   1.516       .  S
C5          C146   1.513       .  S
C5          C150   1.516       .  S
C6          C168   1.480       .  S
C6          C125   1.544       .  S
C6          C129   1.537       .  S
C6          C134   1.521       .  S
C7          C140   1.483       .  S
C7          C114   1.527       .  S
C7          C117   1.539       .  S
C7          C122   1.524       .  S
C8          C181   1.468       .  S
C8          C102   1.528       .  S
C8          C106   1.542       .  S
C8          C110   1.531       .  S
O9           C25   1.271       .  A
O9          Zn15   1.999       .  S
C10          O26   1.281       .  A
C10          O23   1.269       .  A
C10         C194   1.476       .  S
O11         C236   1.277   1_554  A
O11         Cd18   2.082       .  S
O12          C30   1.268   1_556  A
O12        Cd233   2.047       .  S
O13          C27   1.276       .  A
O13         Cd17   2.080       .  S
O14          C25   1.278       .  A
O14       Cd1077   2.075   1_455  S
Zn15       O1298   2.010       .  S
Zn15        O452   1.991       .  S
Zn15        O868   1.936       .  S
O16          C27   1.266       .  A
O16        Cd657   2.031   1_554  S
Cd17       O1074   2.067   1_554  S
Cd17        O867   2.035       .  S
Cd17        O232   1.989       .  S
Cd18         O22   2.081       .  S
Cd18         O31   2.110   1_455  S
Cd18       O1504   2.002   1_455  S
O19          C29   1.281       .  A
O19        Cd865   2.101   1_455  S
O20        Zn863   1.915       .  S
O20        Cd229   1.983       .  S
O20       Cd1502   2.005       .  S
O20        Cd445   1.964       .  S
Cd21         O23   2.041       .  S
Cd21        O224   2.042       .  S
Cd21        O652   2.016       .  S
Cd21        O444   1.984       .  S
O22         C453   1.277   1_545  A
C24          O28   1.272       .  A
C24         O223   1.275       .  A
C24         C121   1.480       .  S
C25         C177   1.472       .  S
O26       Zn1287   2.062       .  S
C27         C149   1.466       .  S
O28        Zn439   2.003   1_545  S
C29         O446   1.279       .  A
C29         C109   1.487       .  S
C30         O879   1.278       .  A
C30         C133   1.471       .  S
O31         C878   1.279       .  A
O32          C48   1.285       .  A
O32        Zn462   2.110       .  S
C33          O49   1.280       .  A
C33          O46   1.275   1_545  A
C33         C118   1.480       .  S
O34          C47   1.272       .  A
O34         Cd41   2.053       .  S
O35          C53   1.275       .  A
O35        Cd468   2.082   1_545  S
O36          C50   1.268       .  A
O36         Cd40   2.025       .  S
O37          C48   1.263       .  A
O37         Cd40   2.006       .  S
Zn38         O49   2.059       .  S
Zn38         O51   2.043       .  S
Zn38        O456   2.039       .  S
Zn38         O43   1.962   1_545  S
O39          C50   1.280       .  A
O39         Cd44   2.117       .  S
Cd40         O42   2.027       .  S
Cd40        O467   1.971       .  S
Cd41         O45   2.079       .  S
Cd41         O54   2.043       .  S
Cd41         O43   1.992   1_545  S
O42          C52   1.265       .  A
O43        Cd464   1.987       .  S
O43        Cd468   2.001       .  S
Cd44        O459   2.102       .  S
Cd44        O470   2.052       .  S
Cd44        O467   2.003       .  S
O45         C476   1.274   1_545  A
O46        Cd468   2.062       .  S
C47          O51   1.277       .  A
C47         C153   1.472       .  S
C48         C101   1.479       .  S
C50         C202   1.473       .  S
C52         O469   1.272       .  A
C52         C142   1.456       .  S
C53          O54   1.270       .  A
C53         C189   1.467       .  S
O55          C71   1.281       .  A
O55        Zn273   2.055   1_554  S
C56          O72   1.276       .  A
C56          O69   1.275       .  A
C56         C210   1.481       .  S
O57          C70   1.274       .  A
O57         Cd64   2.054       .  S
O58          C76   1.277       .  A
O58         Cd67   2.073       .  S
O59          C73   1.281       .  A
O59        Cd275   2.090       .  S
O60          C71   1.279       .  A
O60         Cd63   2.105       .  S
Zn61         O72   2.035       .  S
Zn61        O267   2.025       .  S
Zn61        O286   1.985       .  S
Zn61         O66   1.942       .  S
O62          C73   1.276       .  A
O62         Cd67   2.075       .  S
Cd63         O65   2.107       .  S
Cd63        O271   2.110   1_554  S
Cd63        O278   2.002       .  S
Cd64         O68   2.051       .  S
Cd64         O77   2.083       .  S
Cd64        O278   1.996       .  S
O65          C75   1.281       .  A
O66         Cd67   1.990       .  S
O66        Cd275   1.996       .  S
O66        Cd276   1.997       .  S
Cd67         O69   2.077       .  S
O68          C75   1.272       .  A
C70          O74   1.269   1_554  A
C70         C145   1.460       .  S
C71         C130   1.498       .  S
C73         C113   1.480       .  S
O74        Zn273   1.995       .  S
C75         C162   1.478       .  S
C76         O289   1.274       .  A
C76         C170   1.477       .  S
O77         C288   1.273   1_554  A
O78          C94   1.278   1_655  A
O78        Zn932   2.036       .  S
C79          O95   1.279       .  A
C79          O92   1.273       .  A
C79         C205   1.472       .  S
O80          C93   1.270       .  A
O80         Cd87   2.040       .  S
O81          C99   1.277       .  A
O81         Cd90   2.090       .  S
O82          C96   1.276       .  A
O82        Cd934   2.069       .  S
O83          C94   1.280       .  A
O83         Cd86   2.098       .  S
Zn84         O95   2.043       .  S
Zn84        O926   2.026       .  S
Zn84        O945   2.034       .  S
Zn84         O89   1.956       .  S
O85          C96   1.280       .  A
O85         Cd90   2.116       .  S
Cd86         O88   2.103       .  S
Cd86        O930   2.074       .  S
Cd86        O937   2.012       .  S
Cd87         O91   2.064       .  S
Cd87        O100   2.050       .  S
Cd87        O937   1.990       .  S
O88          C98   1.278       .  A
O89         Cd90   2.014       .  S
O89        Cd934   2.000       .  S
O89        Cd935   1.992       .  S
Cd90         O92   2.058       .  S
O91          C98   1.272       .  A
C93          O97   1.279       .  A
C93         C174   1.472       .  S
C94         C105   1.485       .  S
C96         C126   1.485       .  S
O97        Zn932   2.051   1_455  S
C98         C158   1.481       .  S
C99         O948   1.269       .  A
C99         C186   1.471       .  S
O100        C947   1.271   1_455  A
C101        C102   1.335       .  D
C101        H103   1.087       .  S
C102        H104   1.089       .  S
C105        C106   1.354       .  D
C105        H107   1.085       .  S
C106        H108   1.087       .  S
C109        C110   1.352       .  D
C109        H111   1.087       .  S
C110        H112   1.087       .  S
C113        C114   1.345       .  D
C113        H115   1.086       .  S
C114        H116   1.089       .  S
C117        C118   1.353       .  D
C117        H119   1.087       .  S
C118        H120   1.084       .  S
C121        C122   1.352       .  D
C121        H123   1.085       .  S
C122        H124   1.088       .  S
C125        C126   1.356       .  D
C125        H127   1.087       .  S
C126        H128   1.084       .  S
C129        C130   1.351       .  D
C129        H131   1.089       .  S
C130        H132   1.086       .  S
C133        C134   1.345       .  D
C133        H135   1.087   1_554  S
C134        H136   1.088       .  S
C137        C138   1.204       .  T
C138        C775   1.408   1_554  S
C139        C140   1.208       .  T
C139        C774   1.414   1_545  S
C141        C142   1.340       .  D
C141        H143   1.088       .  S
C142        H144   1.087       .  S
C145        C146   1.338       .  D
C145        H147   1.087   1_554  S
C146        H148   1.088       .  S
C149        C150   1.339       .  D
C149        H151   1.087       .  S
C150        H152   1.088       .  S
C153        C154   1.347       .  D
C153        H155   1.087       .  S
C154        H156   1.087       .  S
C157        C158   1.347       .  D
C157        H159   1.088       .  S
C158        H160   1.087       .  S
C161        C162   1.343       .  D
C161        H163   1.088       .  S
C162        H164   1.087       .  S
C165        C166   1.202       .  T
C166       C1227   1.405   1_455  S
C167        C168   1.204       .  T
C167       C1226   1.406   1_554  S
C169        C170   1.345       .  D
C169        H171   1.088       .  S
C170        H172   1.087       .  S
C173        C174   1.343       .  D
C173        H175   1.087       .  S
C174        H176   1.087       .  S
C177        C178   1.340       .  D
C177        H179   1.087       .  S
C178        H180   1.089       .  S
C181        C182   1.199   1_455  T
C182       C1455   1.398       .  S
C183        C184   1.195       .  T
C183       C1454   1.392   1_545  S
C185        C186   1.344       .  D
C185        H187   1.088       .  S
C186        H188   1.087       .  S
C189        C190   1.347       .  D
C189        H191   1.088       .  S
C190        H192   1.087       .  S
C193        C194   1.339       .  D
C193        H195   1.089       .  S
C194        H196   1.087       .  S
C197        C198   1.210       .  T
C198        C199   1.416       .  S
C199        C200   1.209       .  T
C201        C202   1.346       .  D
C201        H203   1.087       .  S
C202        H204   1.084       .  S
C205        C206   1.343       .  D
C205        H207   1.087       .  S
C206        H208   1.089       .  S
C209        C210   1.350       .  D
C209        H211   1.087       .  S
C210        H212   1.087       .  S
C213        C409   1.484       .  S
C213        C413   1.537       .  S
C213        C418   1.519       .  S
C213        C421   1.527       .  S
C214        C396   1.469       .  S
C214        C397   1.514       .  S
C214        C402   1.517       .  S
C214        C405   1.519       .  S
C215        C377   1.470       .  S
C215        C381   1.529       .  S
C215        C385   1.528       .  S
C215        C390   1.529       .  S
C216        C412   1.475       .  S
C216        C366   1.521       .  S
C216        C369   1.524       .  S
C216        C373   1.539       .  S
C217        C349   1.484       .  S
C217        C353   1.520       .  S
C217        C358   1.518       .  S
C217        C362   1.525       .  S
C218        C380   1.474       .  S
C218        C337   1.536       .  S
C218        C341   1.529       .  S
C218        C346   1.521       .  S
C219        C352   1.483       .  S
C219        C326   1.536       .  S
C219        C329   1.535       .  S
C219        C334   1.537       .  S
C220        C393   1.469       .  S
C220        C314   1.527       .  S
C220        C318   1.526       .  S
C220        C322   1.520       .  S
O221        C237   1.274       .  A
O221       Zn227   2.018       .  S
C222        O238   1.271       .  A
C222        O235   1.272       .  A
C222        C406   1.460       .  S
O223       Cd230   2.090       .  S
O224        C242   1.269       .  A
O225        C239   1.278       .  A
O225       Cd229   2.098       .  S
O226        C237   1.283       .  A
O226       Cd865   2.107   1_456  S
Zn227      O1510   2.055   1_455  S
Zn227       O664   2.020       .  S
Zn227      O1080   1.945       .  S
O228        C239   1.268       .  A
O228       Cd445   2.038       .  S
Cd229       O862   2.067       .  S
Cd229      O1079   2.024       .  S
Cd230       O234   2.055       .  S
Cd230       O243   2.088   1_455  S
Cd230      O1292   1.991       .  S
O231        C241   1.277       .  A
O231      Cd1077   2.080   1_455  S
O232      Zn1075   1.938   1_554  S
O232      Cd1290   2.002       .  S
O232       Cd657   1.976   1_554  S
Cd233       O440   2.046   1_556  S
Cd233       O235   2.041       .  S
Cd233       O656   1.984       .  S
O234        C665   1.274   1_545  A
C236        O240   1.280       .  A
C236        C333   1.487       .  S
C237        C389   1.487       .  S
O238      Zn1499   1.996       .  S
C239        C361   1.473       .  S
O240       Zn651   2.060   1_545  S
C241        O658   1.275       .  A
C241        C321   1.475       .  S
C242       O1091   1.276       .  A
C242        C345   1.480       .  S
O243       C1090   1.278       .  A
O244        C260   1.277       .  A
O244       Zn674   2.051       .  S
C245        O261   1.280       .  A
C245        O258   1.275   1_545  A
C245        C330   1.478       .  S
O246        C259   1.273       .  A
O246       Cd253   2.058       .  S
O247        C265   1.274   1_565  A
O247       Cd680   2.064       .  S
O248        C262   1.272       .  A
O248       Cd252   2.050       .  S
O249        C260   1.270       .  A
O249       Cd252   2.044       .  S
Zn250       O668   2.079   1_545  S
Zn250       O261   2.069       .  S
Zn250       O263   2.040       .  S
Zn250       O255   1.962   1_545  S
O251        C262   1.282       .  A
O251       Cd256   2.119       .  S
Cd252       O254   2.050       .  S
Cd252       O679   1.985       .  S
Cd253       O257   2.114   1_545  S
Cd253       O266   2.072       .  S
Cd253       O255   2.011   1_545  S
O254        C264   1.270       .  A
O255       Cd676   1.968       .  S
O255       Cd680   2.001       .  S
Cd256       O671   2.104       .  S
Cd256       O682   2.068       .  S
Cd256       O679   2.004       .  S
O257        C688   1.279       .  A
O258       Cd680   2.073       .  S
C259        O263   1.279       .  A
C259        C365   1.475       .  S
C260        C313   1.478       .  S
C262        C414   1.481       .  S
C264        O681   1.273       .  A
C264        C354   1.465       .  S
C265        O266   1.275       .  A
C265        C401   1.464       .  S
O267        C283   1.277       .  A
C268        O284   1.279       .  A
C268        O281   1.274       .  A
C268        C422   1.478       .  S
O269        C282   1.277       .  A
O269       Cd276   2.077       .  S
O270        C288   1.277       .  A
O270       Cd279   2.086       .  S
O271        C285   1.284       .  A
O272        C283   1.278       .  A
O272       Cd275   2.099       .  S
Zn273       O284   2.053       .  S
Zn273       O278   1.959   1_556  S
O274        C285   1.277       .  A
O274       Cd279   2.078       .  S
Cd275       O277   2.112       .  S
Cd276       O280   2.078       .  S
Cd276       O289   2.077       .  S
O277        C287   1.281       .  A
O278       Cd279   1.987   1_554  S
Cd279       O281   2.062       .  S
O280        C287   1.276       .  A
C282        O286   1.268       .  A
C282        C357   1.464       .  S
C283        C342   1.488       .  S
C285        C325   1.488       .  S
C287        C374   1.488       .  S
C288        C382   1.484       .  S
O290        C306   1.277   1_655  A
O290      Zn1144   2.045       .  S
C291        O307   1.270       .  A
C291        O304   1.277       .  A
C291        C417   1.477       .  S
O292        C305   1.278       .  A
O292       Cd299   2.079       .  S
O293        C311   1.268       .  A
O293       Cd302   2.041       .  S
O294        C308   1.276       .  A
O294      Cd1146   2.079       .  S
O295        C306   1.271       .  A
O295       Cd298   2.045       .  S
Zn296      O1138   1.995       .  S
Zn296       O307   2.008       .  S
Zn296      O1157   1.991       .  S
Zn296       O301   1.938       .  S
O297        C308   1.273       .  A
O297       Cd302   2.067       .  S
Cd298      O1142   2.049   1_455  S
Cd298       O300   2.059       .  S
Cd298      O1149   1.982   1_455  S
Cd299       O303   2.102       .  S
Cd299       O312   2.092       .  S
Cd299      O1149   1.993   1_455  S
O300        C310   1.272       .  A
O301      Cd1146   2.001       .  S
O301      Cd1147   2.002       .  S
O301       Cd302   2.000       .  S
Cd302       O304   2.066       .  S
O303        C310   1.282       .  A
C305        O309   1.277       .  A
C305        C386   1.476       .  S
C306        C317   1.477       .  S
C308        C338   1.474       .  S
O309      Zn1144   2.031   1_455  S
C310        C370   1.482       .  S
C311       O1160   1.279       .  A
C311        C398   1.469       .  S
O312       C1159   1.276   1_455  A
C313        C314   1.357       .  D
C313        H315   1.084       .  S
C314        H316   1.087       .  S
C317        C318   1.355       .  D
C317        H319   1.084       .  S
C318        H320   1.088       .  S
C321        C322   1.348       .  D
C321        H323   1.087       .  S
C322        H324   1.088       .  S
C325        C326   1.346       .  D
C325        H327   1.086       .  S
C326        H328   1.089       .  S
C329        C330   1.352       .  D
C329        H331   1.087       .  S
C330        H332   1.086   1_545  S
C333        C334   1.352       .  D
C333        H335   1.084       .  S
C334        H336   1.087       .  S
C337        C338   1.357       .  D
C337        H339   1.087       .  S
C338        H340   1.083       .  S
C341        C342   1.351       .  D
C341        H343   1.089       .  S
C342        H344   1.086       .  S
C345        C346   1.354       .  D
C345        H347   1.087       .  S
C346        H348   1.087       .  S
C349        C350   1.208       .  T
C350        C563   1.415       .  S
C351        C352   1.210       .  T
C351        C562   1.417   1_546  S
C353        C354   1.344       .  D
C353        H355   1.088       .  S
C354        H356   1.087       .  S
C357        C358   1.337       .  D
C357        H359   1.087       .  S
C358        H360   1.088       .  S
C361        C362   1.342       .  D
C361        H363   1.087       .  S
C362        H364   1.087       .  S
C365        C366   1.344       .  D
C365        H367   1.087       .  S
C366        H368   1.088       .  S
C369        C370   1.342       .  D
C369        H371   1.089       .  S
C370        H372   1.085       .  S
C373        C374   1.350       .  D
C373        H375   1.087       .  S
C374        H376   1.087       .  S
C377        C378   1.201       .  T
C378       C1015   1.402   1_456  S
C379        C380   1.200       .  T
C379       C1014   1.401       .  S
C381        C382   1.347       .  D
C381        H383   1.088       .  S
C382        H384   1.086   1_556  S
C385        C386   1.352       .  D
C385        H387   1.087       .  S
C386        H388   1.087       .  S
C389        C390   1.342       .  D
C389        H391   1.086       .  S
C390        H392   1.089       .  S
C393        C394   1.196       .  T
C394       C1667   1.394   1_455  S
C395        C396   1.198       .  T
C395       C1666   1.397       .  S
C397        C398   1.338       .  D
C397        H399   1.090       .  S
C398        H400   1.087       .  S
C401        C402   1.348       .  D
C401        H403   1.087       .  S
C402        H404   1.087       .  S
C405        C406   1.346       .  D
C405        H407   1.088       .  S
C406        H408   1.084       .  S
C409        C410   1.205       .  T
C410        C411   1.409       .  S
C411        C412   1.205       .  T
C413        C414   1.347       .  D
C413        H415   1.087       .  S
C414        H416   1.085       .  S
C417        C418   1.342       .  D
C417        H419   1.086       .  S
C418        H420   1.090       .  S
C421        C422   1.349       .  D
C421        H423   1.087       .  S
C422        H424   1.088       .  S
C425        C621   1.482       .  S
C425        C625   1.536       .  S
C425        C630   1.518       .  S
C425        C633   1.525       .  S
C426        C608   1.467       .  S
C426        C609   1.530       .  S
C426        C614   1.530       .  S
C426        C617   1.508       .  S
C427        C589   1.467       .  S
C427        C593   1.521       .  S
C427        C597   1.526       .  S
C427        C602   1.520       .  S
C428        C624   1.474       .  S
C428        C578   1.522       .  S
C428        C581   1.519       .  S
C428        C585   1.541       .  S
C429        C561   1.487       .  S
C429        C565   1.523       .  S
C429        C570   1.523       .  S
C429        C574   1.538       .  S
C430        C592   1.477       .  S
C430        C549   1.529       .  S
C430        C553   1.526       .  S
C430        C558   1.520       .  S
C431        C564   1.486       .  S
C431        C538   1.527       .  S
C431        C541   1.543       .  S
C431        C546   1.518       .  S
C432        C605   1.470       .  S
C432        C526   1.523       .  S
C432        C530   1.523       .  S
C432        C534   1.518       .  S
O433        C449   1.268       .  A
O433       Zn439   1.980       .  S
C434        O450   1.274       .  A
C434        O447   1.268       .  A
C434        C618   1.456       .  S
O435        C660   1.277   1_554  A
O435       Cd442   2.082       .  S
O436        C454   1.269       .  A
O436       Cd657   2.025   1_554  S
O437        C451   1.284       .  A
O437       Cd441   2.139       .  S
O438        C449   1.282       .  A
O438      Cd1501   2.103   1_455  S
Zn439       O874   2.002   1_565  S
Zn439      O1292   1.930   1_565  S
O440        C451   1.270   1_545  A
Cd441      O1498   2.132   1_554  S
Cd441      O1291   2.086       .  S
Cd441       O656   2.016   1_564  S
Cd442       O446   2.089       .  S
Cd442       O455   2.112       .  S
Cd442      O1080   2.001   1_554  S
O443        C453   1.276       .  A
O443      Cd1289   2.065   1_455  S
O444      Zn1287   1.951       .  S
O444       Cd653   2.025   1_545  S
O444      Cd1078   2.000       .  S
Cd445       O648   2.009       .  S
Cd445       O447   2.031       .  S
C448        O647   1.277       .  A
C448        O452   1.272       .  A
C448        C545   1.477       .  S
C449        C601   1.475       .  S
O450       Zn863   1.990       .  S
C451        C573   1.485       .  S
C453        C533   1.476       .  S
C454       O1303   1.281       .  A
C454        C557   1.484       .  S
O455       C1302   1.279   1_455  A
O456        C472   1.276   1_545  A
C457        O473   1.285       .  A
C457        O470   1.273       .  A
C457        C542   1.482       .  S
O458        C471   1.270       .  A
O458       Cd465   2.036       .  S
O459        C477   1.281       .  A
O460        C474   1.275       .  A
O460       Cd464   2.070       .  S
O461        C472   1.273       .  A
O461       Cd464   2.053       .  S
Zn462       O473   2.093       .  S
Zn462       O475   2.056       .  S
Zn462       O467   1.973       .  S
O463        C474   1.279       .  A
O463       Cd468   2.101       .  S
Cd464       O466   2.060       .  S
Cd465       O469   2.068       .  S
Cd465       O478   2.045       .  S
Cd465       O467   1.999       .  S
O466        C476   1.272       .  A
C471        O475   1.281       .  A
C471        C577   1.472       .  S
C472        C525   1.476       .  S
C474        C626   1.482       .  S
C476        C566   1.470       .  S
C477        O478   1.269       .  A
C477        C613   1.477       .  S
O479        C495   1.274       .  A
O479       Zn697   2.000   1_554  S
C480        O496   1.280       .  A
C480        O493   1.272       .  A
C480        C634   1.475       .  S
O481        C494   1.278       .  A
O481       Cd488   2.094       .  S
O482        C500   1.275       .  A
O482       Cd491   2.060       .  S
O483        C497   1.280       .  A
O483       Cd699   2.092       .  S
O484        C495   1.279       .  A
O484       Cd487   2.107       .  S
Zn485       O691   2.048       .  S
Zn485       O496   2.060       .  S
Zn485       O710   2.018       .  S
Zn485       O490   1.948       .  S
O486        C497   1.275       .  A
O486       Cd491   2.078       .  S
Cd487       O695   2.111   1_554  S
Cd487       O489   2.107       .  S
Cd487       O702   2.011       .  S
Cd488       O492   2.092       .  S
Cd488       O501   2.106       .  S
Cd488       O702   2.014       .  S
O489        C499   1.282       .  A
O490       Cd699   1.995       .  S
O490       Cd700   1.997       .  S
O490       Cd491   1.979       .  S
Cd491       O493   2.049       .  S
O492        C499   1.279       .  A
C494        O498   1.267       .  A
C494        C569   1.464       .  S
C495        C554   1.485       .  S
C497        C537   1.484       .  S
O498       Zn697   1.975   1_554  S
C499        C586   1.490       .  S
C500        O713   1.274       .  A
C500        C594   1.476       .  S
O501        C712   1.279   1_554  A
O502        C518   1.277   1_655  A
O502      Zn1356   2.044       .  S
C503        O519   1.271       .  A
C503        O516   1.278       .  A
C503        C629   1.476       .  S
O504        C517   1.277       .  A
O504       Cd511   2.074       .  S
O505        C523   1.270       .  A
O505       Cd514   2.049       .  S
O506        C520   1.273       .  A
O506      Cd1358   2.064       .  S
O507        C518   1.270       .  A
O507       Cd510   2.031       .  S
Zn508      O1350   1.980       .  S
Zn508       O519   2.005       .  S
Zn508      O1369   1.986       .  S
Zn508       O513   1.948       .  S
O509        C520   1.274       .  A
O509       Cd514   2.071       .  S
Cd510      O1354   2.022   1_455  S
Cd510       O512   2.045       .  S
Cd510      O1361   1.974   1_455  S
Cd511       O515   2.094       .  S
Cd511       O524   2.069       .  S
Cd511      O1361   1.990   1_455  S
O512        C522   1.268       .  A
O513      Cd1358   2.000       .  S
O513      Cd1359   2.004       .  S
O513       Cd514   2.002       .  S
Cd514       O516   2.075       .  S
O515        C522   1.280       .  A
C517        O521   1.277       .  A
C517        C598   1.475       .  S
C518        C529   1.473       .  S
C520        C550   1.472       .  S
O521      Zn1356   2.028   1_455  S
C522        C582   1.477       .  S
C523       O1372   1.284       .  A
C523        C610   1.483       .  S
O524       C1371   1.274   1_455  A
C525        C526   1.352       .  D
C525        H527   1.085       .  S
C526        H528   1.088       .  S
C529        C530   1.354       .  D
C529        H531   1.085       .  S
C530        H532   1.088       .  S
C533        C534   1.349       .  D
C533        H535   1.087   1_565  S
C534        H536   1.088       .  S
C537        C538   1.345       .  D
C537        H539   1.086       .  S
C538        H540   1.089       .  S
C541        C542   1.351       .  D
C541        H543   1.087       .  S
C542        H544   1.084       .  S
C545        C546   1.349       .  D
C545        H547   1.086       .  S
C546        H548   1.088       .  S
C549        C550   1.352       .  D
C549        H551   1.087       .  S
C550        H552   1.084       .  S
C553        C554   1.351       .  D
C553        H555   1.089       .  S
C554        H556   1.086       .  S
C557        C558   1.357       .  D
C557        H559   1.086       .  S
C558        H560   1.087       .  S
C561        C562   1.210       .  T
C563        C564   1.209       .  T
C565        C566   1.348       .  D
C565        H567   1.087       .  S
C566        H568   1.087       .  S
C569        C570   1.338       .  D
C569        H571   1.087       .  S
C570        H572   1.088       .  S
C573        C574   1.344       .  D
C573        H575   1.087   1_565  S
C574        H576   1.087       .  S
C577        C578   1.340       .  D
C577        H579   1.087       .  S
C578        H580   1.089       .  S
C581        C582   1.338       .  D
C581        H583   1.089       .  S
C582        H584   1.084       .  S
C585        C586   1.351       .  D
C585        H587   1.087       .  S
C586        H588   1.087       .  S
C589        C590   1.200       .  T
C590       C1651   1.402   1_455  S
C591        C592   1.203       .  T
C591       C1650   1.405   1_554  S
C593        C594   1.345       .  D
C593        H595   1.088       .  S
C594        H596   1.086       .  S
C597        C598   1.350       .  D
C597        H599   1.087       .  S
C598        H600   1.087       .  S
C601        C602   1.337       .  D
C601        H603   1.087       .  S
C602        H604   1.089       .  S
C605        C606   1.197       .  T
C606       C1031   1.395   1_465  S
C607        C608   1.198       .  T
C607       C1030   1.398       .  S
C609        C610   1.339       .  D
C609        H611   1.089       .  S
C610        H612   1.085       .  S
C613        C614   1.344       .  D
C613        H615   1.086       .  S
C614        H616   1.088       .  S
C617        C618   1.339       .  D
C617        H619   1.090       .  S
C618        H620   1.087       .  S
C621        C622   1.205       .  T
C622        C623   1.409       .  S
C623        C624   1.205       .  T
C625        C626   1.351       .  D
C625        H627   1.087       .  S
C626        H628   1.085       .  S
C629        C630   1.341       .  D
C629        H631   1.086       .  S
C630        H632   1.090       .  S
C633        C634   1.345       .  D
C633        H635   1.087       .  S
C634        H636   1.087       .  S
C637        C833   1.486       .  S
C637        C837   1.527       .  S
C637        C842   1.525       .  S
C637        C845   1.516       .  S
C638        C820   1.462       .  S
C638        C821   1.526       .  S
C638        C826   1.530       .  S
C638        C829   1.511       .  S
C639        C801   1.493       .  S
C639        C805   1.536       .  S
C639        C809   1.531       .  S
C639        C814   1.536       .  S
C640        C836   1.478       .  S
C640        C790   1.519       .  S
C640        C793   1.519       .  S
C640        C797   1.525       .  S
C641        C773   1.484       .  S
C641        C777   1.526       .  S
C641        C782   1.521       .  S
C641        C786   1.523       .  S
C642        C804   1.467       .  S
C642        C761   1.532       .  S
C642        C765   1.526       .  S
C642        C770   1.516       .  S
C643        C776   1.475       .  S
C643        C750   1.530       .  S
C643        C753   1.545       .  S
C643        C758   1.527       .  S
C644        C817   1.445       .  S
C644        C738   1.522       .  S
C644        C742   1.522       .  S
C644        C746   1.523       .  S
O645        C661   1.282       .  A
O645       Zn651   2.076       .  S
C646        O662   1.277       .  A
C646        O659   1.268       .  A
C646        C830   1.461       .  S
O647       Cd654   2.095       .  S
O648        C666   1.268       .  A
O649        C663   1.282       .  A
O649       Cd653   2.118       .  S
O650        C661   1.270   1_654  A
O650      Cd1289   2.042       .  S
Zn651      O1086   2.085   1_465  S
Zn651      O1504   1.964   1_466  S
O652        C663   1.266   1_545  A
Cd653      O1286   2.121       .  S
Cd653      O1503   2.109       .  S
Cd654       O658   2.069       .  S
Cd654       O667   2.104       .  S
Cd654       O868   2.003       .  S
O655        C665   1.279       .  A
O655      Cd1501   2.093   1_455  S
O656      Zn1499   1.934       .  S
O656       Cd866   2.006   1_556  S
Cd657       O659   2.029       .  S
C660        O664   1.275       .  A
C660        C757   1.476       .  S
C661        C813   1.477       .  S
O662      Zn1075   2.020       .  S
C663        C785   1.468       .  S
C665        C745   1.472       .  S
C666       O1515   1.282       .  A
C666        C769   1.479       .  S
O667       C1514   1.280   1_455  A
O668        C684   1.282       .  A
C669        O685   1.279       .  A
C669        O682   1.276       .  A
C669        C754   1.480       .  S
O670        C683   1.270       .  A
O670       Cd677   2.042       .  S
O671        C689   1.279       .  A
O672        C686   1.265       .  A
O672       Cd676   2.015       .  S
O673        C684   1.260       .  A
O673       Cd676   1.991       .  S
Zn674       O685   2.059       .  S
Zn674       O687   2.038       .  S
Zn674       O679   1.962       .  S
O675        C686   1.276       .  A
O675       Cd680   2.091       .  S
Cd676       O678   2.017       .  S
Cd677       O681   2.071       .  S
Cd677       O690   2.046       .  S
Cd677       O679   1.997       .  S
O678        C688   1.264       .  A
C683        O687   1.278       .  A
C683        C789   1.468       .  S
C684        C737   1.467       .  S
C686        C838   1.463       .  S
C688        C778   1.468       .  S
C689        O690   1.270       .  A
C689        C825   1.476       .  S
O691        C707   1.281       .  A
C692        O708   1.269       .  A
C692        O705   1.276       .  A
C692        C846   1.475       .  S
O693        C706   1.275       .  A
O693       Cd700   2.069       .  S
O694        C712   1.275       .  A
O694       Cd703   2.070       .  S
O695        C709   1.283       .  A
O696        C707   1.274       .  A
O696       Cd699   2.067       .  S
Zn697       O708   2.004       .  S
Zn697       O702   1.938   1_556  S
O698        C709   1.271       .  A
O698       Cd703   2.052       .  S
Cd699       O701   2.089       .  S
Cd700       O704   2.052       .  S
Cd700       O713   2.079       .  S
O701        C711   1.278       .  A
O702       Cd703   1.985   1_554  S
Cd703       O705   2.074       .  S
O704        C711   1.272       .  A
C706        O710   1.273       .  A
C706        C781   1.470       .  S
C707        C766   1.482       .  S
C709        C749   1.479       .  S
C711        C798   1.473       .  S
C712        C806   1.479       .  S
O714        C730   1.281       .  A
O714      Zn1568   2.060   1_455  S
C715        O731   1.284       .  A
C715        O728   1.270       .  A
C715        C841   1.472       .  S
O716        C729   1.272       .  A
O716       Cd723   2.051       .  S
O717        C735   1.267       .  A
O717       Cd726   2.037       .  S
O718        C732   1.272       .  A
O718      Cd1570   2.059       .  S
O719        C730   1.266       .  A
O719       Cd722   2.028       .  S
Zn720      O1562   2.083       .  S
Zn720       O731   2.079       .  S
Zn720      O1581   2.067       .  S
Zn720       O725   1.965       .  S
O721        C732   1.273       .  A
O721       Cd726   2.071       .  S
Cd722      O1566   2.020       .  S
Cd722       O724   2.050       .  S
Cd722      O1573   1.980       .  S
Cd723       O727   2.077       .  S
Cd723       O736   2.048       .  S
Cd723      O1573   1.989       .  S
O724        C734   1.271       .  A
O725      Cd1570   1.972       .  S
O725      Cd1571   1.995       .  S
O725       Cd726   1.989       .  S
Cd726       O728   2.028       .  S
O727        C734   1.273       .  A
C729        O733   1.279       .  A
C729        C810   1.474       .  S
C730        C741   1.472       .  S
C732        C762   1.470       .  S
O733      Zn1568   2.050   1_455  S
C734        C794   1.473       .  S
C735       O1584   1.279       .  A
C735        C822   1.472       .  S
O736       C1583   1.272   1_455  A
C737        C738   1.330       .  D
C737        H739   1.084       .  S
C738        H740   1.090       .  S
C741        C742   1.337       .  D
C741        H743   1.083       .  S
C742        H744   1.090       .  S
C745        C746   1.347       .  D
C745        H747   1.088   1_565  S
C746        H748   1.087       .  S
C749        C750   1.342       .  D
C749        H751   1.085       .  S
C750        H752   1.089       .  S
C753        C754   1.356       .  D
C753        H755   1.087       .  S
C754        H756   1.084       .  S
C757        C758   1.353       .  D
C757        H759   1.084       .  S
C758        H760   1.088       .  S
C761        C762   1.353       .  D
C761        H763   1.087       .  S
C762        H764   1.084       .  S
C765        C766   1.344       .  D
C765        H767   1.089       .  S
C766        H768   1.087       .  S
C769        C770   1.357       .  D
C769        H771   1.086       .  S
C770        H772   1.087       .  S
C773        C774   1.208       .  T
C775        C776   1.205       .  T
C777        C778   1.340       .  D
C777        H779   1.088       .  S
C778        H780   1.087       .  S
C781        C782   1.346       .  D
C781        H783   1.087       .  S
C782        H784   1.088       .  S
C785        C786   1.338       .  D
C785        H787   1.088   1_565  S
C786        H788   1.087       .  S
C789        C790   1.341       .  D
C789        H791   1.087       .  S
C790        H792   1.088       .  S
C793        C794   1.348       .  D
C793        H795   1.088       .  S
C794        H796   1.087       .  S
C797        C798   1.345       .  D
C797        H799   1.087       .  S
C798        H800   1.087       .  S
C801        C802   1.212       .  T
C802       C1439   1.421   1_456  S
C803        C804   1.196       .  T
C803       C1438   1.393       .  S
C805        C806   1.349       .  D
C805        H807   1.088       .  S
C806        H808   1.079       .  S
C809        C810   1.346       .  D
C809        H811   1.088       .  S
C810        H812   1.083       .  S
C813        C814   1.347       .  D
C813        H815   1.084       .  S
C814        H816   1.088       .  S
C817        C818   1.185   1_455  T
C818       C1243   1.375   1_565  S
C819        C820   1.195       .  T
C819       C1242   1.392       .  S
C821        C822   1.340       .  D
C821        H823   1.088       .  S
C822        H824   1.083       .  S
C825        C826   1.347       .  D
C825        H827   1.083       .  S
C826        H828   1.087       .  S
C829        C830   1.338       .  D
C829        H831   1.089       .  S
C830        H832   1.087       .  S
C833        C834   1.206       .  T
C834        C835   1.409       .  S
C835        C836   1.205       .  T
C837        C838   1.343       .  D
C837        H839   1.088       .  S
C838        H840   1.084       .  S
C841        C842   1.338       .  D
C841        H843   1.087       .  S
C842        H844   1.088       .  S
C845        C846   1.338       .  D
C845        H847   1.090       .  S
C846        H848   1.086       .  S
C849       C1045   1.484       .  S
C849       C1049   1.518       .  S
C849       C1054   1.536       .  S
C849       C1057   1.517       .  S
C850       C1032   1.470       .  S
C850       C1033   1.519       .  S
C850       C1038   1.512       .  S
C850       C1041   1.520       .  S
C851       C1013   1.471       .  S
C851       C1017   1.536       .  S
C851       C1021   1.534       .  S
C851       C1026   1.521       .  S
C852       C1048   1.483       .  S
C852       C1002   1.530       .  S
C852       C1005   1.521       .  S
C852       C1009   1.526       .  S
C853        C985   1.483       .  S
C853        C989   1.518       .  S
C853        C994   1.518       .  S
C853        C998   1.526       .  S
C854       C1016   1.475       .  S
C854        C973   1.522       .  S
C854        C977   1.534       .  S
C854        C982   1.517       .  S
C855        C988   1.490       .  S
C855        C962   1.527       .  S
C855        C965   1.541       .  S
C855        C970   1.522       .  S
C856       C1029   1.466       .  S
C856        C950   1.515       .  S
C856        C954   1.532       .  S
C856        C958   1.519       .  S
O857        C873   1.272       .  A
O857       Zn863   2.010       .  S
C858        O874   1.271   1_655  A
C858        O871   1.272       .  A
C858       C1042   1.462       .  S
O859       C1084   1.276   1_554  A
O859       Cd866   2.094       .  S
O860        C878   1.260   1_556  A
O860      Cd1081   2.007       .  S
O861        C875   1.283       .  A
O861       Cd865   2.132       .  S
O862        C873   1.276       .  A
Zn863      O1300   1.990       .  S
O864        C875   1.266       .  A
O864      Cd1505   2.012   1_554  S
Cd865      O1080   2.010   1_654  S
Cd866       O870   2.045       .  S
Cd866       O879   2.096       .  S
O867        C877   1.269       .  A
O868      Cd1077   2.005   1_455  S
O868      Cd1293   1.978   1_455  S
Cd869      O1072   2.035       .  S
Cd869      O1500   2.050       .  S
Cd869       O871   2.039       .  S
Cd869      O1292   1.981   1_655  S
O870       C1301   1.271   1_545  A
C872       O1071   1.274       .  A
C872        O876   1.278       .  A
C872        C969   1.480       .  S
C873       C1025   1.476       .  S
C875        C997   1.471       .  S
O876      Zn1287   2.034       .  S
C877       O1294   1.281       .  A
C877        C957   1.467       .  S
C878        C981   1.462       .  S
O880        C896   1.283       .  A
O880      Zn1310   2.068       .  S
C881        O897   1.286       .  A
C881        O894   1.272   1_545  A
C881        C966   1.479       .  S
O882        C895   1.269       .  A
O882       Cd889   2.036       .  S
O883        C901   1.277   1_565  A
O883      Cd1316   2.077       .  S
O884        C898   1.268       .  A
O884       Cd888   2.047       .  S
O885        C896   1.266       .  A
O885       Cd888   2.009       .  S
Zn886      O1304   2.109   1_545  S
Zn886       O897   2.097       .  S
Zn886       O899   2.080       .  S
Zn886       O891   1.975   1_545  S
O887        C898   1.276       .  A
O887       Cd892   2.091       .  S
Cd888       O890   2.035       .  S
Cd888      O1315   1.976       .  S
Cd889       O893   2.053   1_545  S
Cd889       O902   2.037       .  S
Cd889       O891   1.987   1_545  S
O890        C900   1.266       .  A
O891      Cd1312   1.966       .  S
O891      Cd1316   1.993       .  S
Cd892      O1307   2.079       .  S
Cd892      O1318   2.051       .  S
Cd892      O1315   1.987       .  S
O893       C1324   1.271       .  A
O894      Cd1316   2.041       .  S
C895        O899   1.282       .  A
C895       C1001   1.477       .  S
C896        C949   1.465       .  S
C898       C1050   1.470       .  S
C900       O1317   1.272       .  A
C900        C990   1.459       .  S
C901        O902   1.268       .  A
C901       C1037   1.467       .  S
O903        C919   1.280       .  A
O903      Zn1121   2.047   1_554  S
C904        O920   1.270       .  A
C904        O917   1.276       .  A
C904       C1058   1.474       .  S
O905        C918   1.276       .  A
O905       Cd912   2.072       .  S
O906        C924   1.272       .  A
O906       Cd915   2.051       .  S
O907        C921   1.282       .  A
O907      Cd1123   2.103       .  S
O908        C919   1.278       .  A
O908       Cd911   2.100       .  S
Zn909      O1115   1.999       .  S
Zn909       O920   2.005       .  S
Zn909      O1134   1.995       .  S
Zn909       O914   1.932       .  S
O910        C921   1.272       .  A
O910       Cd915   2.060       .  S
Cd911      O1119   2.114   1_554  S
Cd911       O913   2.097       .  S
Cd911      O1126   1.996       .  S
Cd912       O916   2.056       .  S
Cd912       O925   2.089       .  S
Cd912      O1126   1.996       .  S
O913        C923   1.281       .  A
O914      Cd1123   2.005       .  S
O914      Cd1124   2.015       .  S
O914       Cd915   1.979       .  S
Cd915       O917   2.072       .  S
O916        C923   1.274       .  A
C918        O922   1.270   1_554  A
C918        C993   1.468       .  S
C919        C978   1.495       .  S
C921        C961   1.480       .  S
O922      Zn1121   1.999       .  S
C923       C1010   1.474       .  S
C924       O1137   1.280       .  A
C924       C1018   1.479       .  S
O925       C1136   1.274   1_554  A
O926        C942   1.275       .  A
C927        O943   1.279       .  A
C927        O940   1.269       .  A
C927       C1053   1.476       .  S
O928        C941   1.269       .  A
O928       Cd935   2.041       .  S
O929        C947   1.275       .  A
O929       Cd938   2.083       .  S
O930        C944   1.275   1_455  A
O931        C942   1.279       .  A
O931       Cd934   2.097       .  S
Zn932       O943   2.067       .  S
Zn932       O937   1.962   1_655  S
O933        C944   1.273       .  A
O933       Cd938   2.064       .  S
Cd934       O936   2.096       .  S
Cd935       O939   2.038       .  S
Cd935       O948   2.049       .  S
O936        C946   1.279       .  A
O937       Cd938   2.005   1_455  S
Cd938       O940   2.040       .  S
O939        C946   1.269       .  A
C941        O945   1.275       .  A
C941       C1022   1.467       .  S
C942        C953   1.482       .  S
C944        C974   1.465       .  S
C946       C1006   1.470       .  S
C947       C1034   1.469       .  S
C949        C950   1.334       .  D
C949        H951   1.088       .  S
C950        H952   1.089       .  S
C953        C954   1.347       .  D
C953        H955   1.087       .  S
C954        H956   1.087       .  S
C957        C958   1.339       .  D
C957        H959   1.087       .  S
C958        H960   1.088       .  S
C961        C962   1.342       .  D
C961        H963   1.086       .  S
C962        H964   1.089       .  S
C965        C966   1.348       .  D
C965        H967   1.087       .  S
C966        H968   1.084   1_545  S
C969        C970   1.346       .  D
C969        H971   1.087       .  S
C970        H972   1.088       .  S
C973        C974   1.352       .  D
C973        H975   1.087       .  S
C974        H976   1.087   1_655  S
C977        C978   1.350       .  D
C977        H979   1.089       .  S
C978        H980   1.086       .  S
C981        C982   1.335       .  D
C981        H983   1.087   1_554  S
C982        H984   1.089       .  S
C985        C986   1.208   1_554  T
C986       C1623   1.414       .  S
C987        C988   1.212   1_565  T
C987       C1622   1.420       .  S
C989        C990   1.343       .  D
C989        H991   1.088       .  S
C990        H992   1.087       .  S
C993        C994   1.340       .  D
C993        H995   1.087   1_554  S
C994        H996   1.088       .  S
C997        C998   1.340       .  D
C997        H999   1.088       .  S
C998       H1000   1.087       .  S
C1001      C1002   1.343       .  D
C1001      H1003   1.087       .  S
C1002      H1004   1.087       .  S
C1005      C1006   1.342       .  D
C1005      H1007   1.088       .  S
C1006      H1008   1.087       .  S
C1009      C1010   1.345       .  D
C1009      H1011   1.087       .  S
C1010      H1012   1.087       .  S
C1013      C1014   1.200       .  T
C1015      C1016   1.201       .  T
C1017      C1018   1.348       .  D
C1017      H1019   1.087       .  S
C1018      H1020   1.079       .  S
C1021      C1022   1.348       .  D
C1021      H1023   1.087       .  S
C1022      H1024   1.084       .  S
C1025      C1026   1.343       .  D
C1025      H1027   1.086       .  S
C1026      H1028   1.090       .  S
C1029      C1030   1.198       .  T
C1031      C1032   1.197       .  T
C1033      C1034   1.347       .  D
C1033      H1035   1.087       .  S
C1034      H1036   1.087       .  S
C1037      C1038   1.340       .  D
C1037      H1039   1.087       .  S
C1038      H1040   1.089       .  S
C1041      C1042   1.347       .  D
C1041      H1043   1.088       .  S
C1042      H1044   1.084       .  S
C1045      C1046   1.208       .  T
C1046      C1047   1.414       .  S
C1047      C1048   1.208       .  T
C1049      C1050   1.342       .  D
C1049      H1051   1.089       .  S
C1050      H1052   1.087       .  S
C1053      C1054   1.347       .  D
C1053      H1055   1.085       .  S
C1054      H1056   1.087       .  S
C1057      C1058   1.343       .  D
C1057      H1059   1.089       .  S
C1058      H1060   1.085       .  S
C1061      C1257   1.497       .  S
C1061      C1261   1.522       .  S
C1061      C1266   1.518       .  S
C1061      C1269   1.519       .  S
C1062      C1244   1.444       .  S
C1062      C1245   1.520       .  S
C1062      C1250   1.526       .  S
C1062      C1253   1.517       .  S
C1063      C1225   1.473       .  S
C1063      C1229   1.520       .  S
C1063      C1233   1.522       .  S
C1063      C1238   1.522       .  S
C1064      C1260   1.490       .  S
C1064      C1214   1.539       .  S
C1064      C1217   1.531       .  S
C1064      C1221   1.534       .  S
C1065      C1197   1.482       .  S
C1065      C1201   1.520       .  S
C1065      C1206   1.526       .  S
C1065      C1210   1.529       .  S
C1066      C1228   1.477       .  S
C1066      C1185   1.515       .  S
C1066      C1189   1.519       .  S
C1066      C1194   1.515       .  S
C1067      C1200   1.480       .  S
C1067      C1174   1.528       .  S
C1067      C1177   1.545       .  S
C1067      C1182   1.524       .  S
C1068      C1241   1.461       .  S
C1068      C1162   1.511       .  S
C1068      C1166   1.529       .  S
C1068      C1170   1.518       .  S
O1069      C1085   1.272       .  A
O1069     Zn1075   2.025       .  S
C1070      O1086   1.284       .  A
C1070      O1083   1.261       .  A
C1070      C1254   1.463       .  S
O1071     Cd1078   2.069       .  S
O1072      C1090   1.266       .  A
O1073      C1087   1.279       .  A
O1073     Cd1077   2.109       .  S
O1074      C1085   1.275       .  A
Zn1075     O1512   2.016       .  S
O1076      C1087   1.270       .  A
O1076     Cd1293   2.045       .  S
Cd1078     O1082   2.052       .  S
Cd1078     O1091   2.099       .  S
O1079      C1089   1.269       .  A
O1080     Cd1505   1.965   1_455  S
Cd1081     O1288   2.021   1_556  S
Cd1081     O1083   1.979       .  S
Cd1081     O1504   1.969   1_556  S
O1082      C1513   1.272   1_545  A
C1084      O1088   1.273       .  A
C1084      C1181   1.481       .  S
C1085      C1237   1.481       .  S
C1087      C1209   1.474       .  S
O1088     Zn1499   2.006       .  S
C1089      O1506   1.282       .  A
C1089      C1169   1.466       .  S
C1090      C1193   1.464       .  S
O1092      C1108   1.282       .  A
O1092     Zn1522   2.060       .  S
C1093      O1109   1.282       .  A
C1093      O1106   1.276   1_545  A
C1093      C1178   1.485       .  S
O1094      C1107   1.275       .  A
O1094     Cd1101   2.066       .  S
O1095      C1113   1.276       .  A
O1095     Cd1528   2.081   1_545  S
O1096      C1110   1.266       .  A
O1096     Cd1100   2.026       .  S
O1097      C1108   1.263       .  A
O1097     Cd1100   1.993       .  S
Zn1098     O1516   2.099   1_545  S
Zn1098     O1109   2.080       .  S
Zn1098     O1111   2.079       .  S
Zn1098     O1103   1.988   1_545  S
O1099      C1110   1.278       .  A
O1099     Cd1104   2.106       .  S
Cd1100     O1102   2.027       .  S
Cd1100     O1527   1.975       .  S
Cd1101     O1105   2.096   1_545  S
Cd1101     O1114   2.056       .  S
Cd1101     O1103   2.005   1_545  S
O1102      C1112   1.264       .  A
O1103     Cd1524   1.988       .  S
O1103     Cd1528   2.011       .  S
Cd1104     O1519   2.085       .  S
Cd1104     O1530   2.069       .  S
Cd1104     O1527   1.996       .  S
O1105      C1536   1.277       .  A
O1106     Cd1528   2.067       .  S
C1107      O1111   1.281       .  A
C1107      C1213   1.485       .  S
C1108      C1161   1.459       .  S
C1110      C1262   1.466       .  S
C1112      O1529   1.273       .  A
C1112      C1202   1.461       .  S
C1113      O1114   1.271       .  A
C1113      C1249   1.473       .  S
O1115      C1131   1.274       .  A
C1116      O1132   1.279       .  A
C1116      O1129   1.269       .  A
C1116      C1270   1.469       .  S
O1117      C1130   1.280       .  A
O1117     Cd1124   2.102       .  S
O1118      C1136   1.273       .  A
O1118     Cd1127   2.054       .  S
O1119      C1133   1.284       .  A
O1120      C1131   1.276       .  A
O1120     Cd1123   2.094       .  S
Zn1121     O1132   2.039       .  S
Zn1121     O1126   1.939   1_556  S
O1122      C1133   1.273       .  A
O1122     Cd1127   2.060       .  S
Cd1123     O1125   2.092       .  S
Cd1124     O1128   2.092       .  S
Cd1124     O1137   2.121       .  S
O1125      C1135   1.281       .  A
O1126     Cd1127   1.978   1_554  S
Cd1127     O1129   2.038       .  S
O1128      C1135   1.279       .  A
C1130      O1134   1.270       .  A
C1130      C1205   1.472       .  S
C1131      C1190   1.483       .  S
C1133      C1173   1.484       .  S
C1135      C1222   1.486       .  S
C1136      C1230   1.478       .  S
O1138      C1154   1.271       .  A
C1139      O1155   1.279       .  A
C1139      O1152   1.267       .  A
C1139      C1265   1.464       .  S
O1140      C1153   1.275       .  A
O1140     Cd1147   2.085       .  S
O1141      C1159   1.271       .  A
O1141     Cd1150   2.047       .  S
O1142      C1156   1.270       .  A
O1143      C1154   1.279       .  A
O1143     Cd1146   2.101       .  S
Zn1144     O1155   2.047       .  S
Zn1144     O1149   1.949       .  S
O1145      C1156   1.275       .  A
O1145     Cd1150   2.067       .  S
Cd1146     O1148   2.096       .  S
Cd1147     O1151   2.085       .  S
Cd1147     O1160   2.090       .  S
O1148      C1158   1.280       .  A
O1149     Cd1150   1.987       .  S
Cd1150     O1152   2.027       .  S
O1151      C1158   1.277       .  A
C1153      O1157   1.271       .  A
C1153      C1234   1.475       .  S
C1154      C1165   1.473       .  S
C1156      C1186   1.462       .  S
C1158      C1218   1.483       .  S
C1159      C1246   1.474       .  S
C1161      C1162   1.330       .  D
C1161      H1163   1.088       .  S
C1162      H1164   1.089       .  S
C1165      C1166   1.344       .  D
C1165      H1167   1.087       .  S
C1166      H1168   1.087       .  S
C1169      C1170   1.338       .  D
C1169      H1171   1.088       .  S
C1170      H1172   1.088       .  S
C1173      C1174   1.342       .  D
C1173      H1175   1.087       .  S
C1174      H1176   1.089       .  S
C1177      C1178   1.356       .  D
C1177      H1179   1.087       .  S
C1178      H1180   1.084       .  S
C1181      C1182   1.350       .  D
C1181      H1183   1.086   1_556  S
C1182      H1184   1.088       .  S
C1185      C1186   1.340       .  D
C1185      H1187   1.088       .  S
C1186      H1188   1.087       .  S
C1189      C1190   1.347       .  D
C1189      H1191   1.089       .  S
C1190      H1192   1.086       .  S
C1193      C1194   1.339       .  D
C1193      H1195   1.087       .  S
C1194      H1196   1.088       .  S
C1197      C1198   1.207       .  T
C1198      C1411   1.412       .  S
C1199      C1200   1.206       .  T
C1199      C1410   1.410   1_546  S
C1201      C1202   1.342       .  D
C1201      H1203   1.088       .  S
C1202      H1204   1.087       .  S
C1205      C1206   1.340       .  D
C1205      H1207   1.087       .  S
C1206      H1208   1.088       .  S
C1209      C1210   1.344       .  D
C1209      H1211   1.087       .  S
C1210      H1212   1.087       .  S
C1213      C1214   1.350       .  D
C1213      H1215   1.087       .  S
C1214      H1216   1.087       .  S
C1217      C1218   1.349       .  D
C1217      H1219   1.088       .  S
C1218      H1220   1.086       .  S
C1221      C1222   1.351       .  D
C1221      H1223   1.087       .  S
C1222      H1224   1.087       .  S
C1225      C1226   1.203       .  T
C1227      C1228   1.202       .  T
C1229      C1230   1.347       .  D
C1229      H1231   1.088       .  S
C1230      H1232   1.086   1_556  S
C1233      C1234   1.352       .  D
C1233      H1235   1.087       .  S
C1234      H1236   1.087       .  S
C1237      C1238   1.345       .  D
C1237      H1239   1.086       .  S
C1238      H1240   1.089       .  S
C1241      C1242   1.194       .  T
C1243      C1244   1.185       .  T
C1245      C1246   1.353       .  D
C1245      H1247   1.087       .  S
C1246      H1248   1.087   1_655  S
C1249      C1250   1.346       .  D
C1249      H1251   1.087       .  S
C1250      H1252   1.087       .  S
C1253      C1254   1.329       .  D
C1253      H1255   1.089       .  S
C1254      H1256   1.088       .  S
C1257      C1258   1.214       .  T
C1258      C1259   1.425       .  S
C1259      C1260   1.214       .  T
C1261      C1262   1.341       .  D
C1261      H1263   1.088       .  S
C1262      H1264   1.087       .  S
C1265      C1266   1.337       .  D
C1265      H1267   1.087       .  S
C1266      H1268   1.089       .  S
C1269      C1270   1.340       .  D
C1269      H1271   1.088       .  S
C1270      H1272   1.087       .  S
C1273      C1469   1.504       .  S
C1273      C1473   1.532       .  S
C1273      C1478   1.518       .  S
C1273      C1481   1.531       .  S
C1274      C1456   1.472       .  S
C1274      C1457   1.518       .  S
C1274      C1462   1.514       .  S
C1274      C1465   1.519       .  S
C1275      C1437   1.464       .  S
C1275      C1441   1.534       .  S
C1275      C1445   1.540       .  S
C1275      C1450   1.539       .  S
C1276      C1472   1.491       .  S
C1276      C1426   1.538       .  S
C1276      C1429   1.533       .  S
C1276      C1433   1.548       .  S
C1277      C1409   1.479       .  S
C1277      C1413   1.508       .  S
C1277      C1418   1.516       .  S
C1277      C1422   1.518       .  S
C1278      C1440   1.494       .  S
C1278      C1397   1.524       .  S
C1278      C1401   1.524       .  S
C1278      C1406   1.518       .  S
C1279      C1412   1.486       .  S
C1279      C1386   1.520       .  S
C1279      C1389   1.547       .  S
C1279      C1394   1.529       .  S
C1280      C1453   1.459       .  S
C1280      C1374   1.522       .  S
C1280      C1378   1.520       .  S
C1280      C1382   1.516       .  S
O1281      C1297   1.274       .  A
O1281     Zn1287   2.030   1_565  S
C1282      O1298   1.271   1_655  A
C1282      O1295   1.271       .  A
C1282      C1466   1.466       .  S
O1283      C1508   1.280   1_554  A
O1283     Cd1290   2.099       .  S
O1284      C1302   1.262   1_556  A
O1284     Cd1505   2.017       .  S
O1285      C1299   1.275       .  A
O1285     Cd1289   2.091       .  S
O1286      C1297   1.283       .  A
O1288      C1299   1.264   1_545  A
Cd1289     O1504   1.993   1_565  S
Cd1290     O1294   2.098       .  S
Cd1290     O1303   2.126       .  S
O1291      C1301   1.281       .  A
O1292     Cd1501   2.013   1_445  S
Cd1293     O1496   2.029       .  S
Cd1293     O1295   2.043       .  S
C1296      O1495   1.283       .  A
C1296      O1300   1.268       .  A
C1296      C1393   1.478       .  S
C1297      C1449   1.495       .  S
C1299      C1421   1.462       .  S
C1301      C1381   1.470       .  S
C1302      C1405   1.467       .  S
O1304      C1320   1.286       .  A
C1305      O1321   1.282       .  A
C1305      O1318   1.274       .  A
C1305      C1390   1.483       .  S
O1306      C1319   1.271       .  A
O1306     Cd1313   2.041       .  S
O1307      C1325   1.277       .  A
O1308      C1322   1.266       .  A
O1308     Cd1312   2.023       .  S
O1309      C1320   1.259       .  A
O1309     Cd1312   1.972       .  S
Zn1310     O1321   2.088       .  S
Zn1310     O1323   2.100       .  S
Zn1310     O1315   1.973       .  S
O1311      C1322   1.278       .  A
O1311     Cd1316   2.109       .  S
Cd1312     O1314   2.014       .  S
Cd1313     O1317   2.071       .  S
Cd1313     O1326   2.033       .  S
Cd1313     O1315   1.985       .  S
O1314      C1324   1.263       .  A
C1319      O1323   1.285       .  A
C1319      C1425   1.483       .  S
C1320      C1373   1.468       .  S
C1322      C1474   1.473       .  S
C1324      C1414   1.448       .  S
C1325      O1326   1.268       .  A
C1325      C1461   1.465       .  S
O1327      C1343   1.273       .  A
O1327     Zn1545   1.993   1_554  S
C1328      O1344   1.279       .  A
C1328      O1341   1.272       .  A
C1328      C1482   1.478       .  S
O1329      C1342   1.278       .  A
O1329     Cd1336   2.088       .  S
O1330      C1348   1.274       .  A
O1330     Cd1339   2.056       .  S
O1331      C1345   1.270       .  A
O1331     Cd1547   2.055       .  S
O1332      C1343   1.279       .  A
O1332     Cd1335   2.112       .  S
Zn1333     O1539   2.067       .  S
Zn1333     O1344   2.059       .  S
Zn1333     O1558   2.018       .  S
Zn1333     O1338   1.952       .  S
O1334      C1345   1.274       .  A
O1334     Cd1339   2.074       .  S
Cd1335     O1543   2.111   1_554  S
Cd1335     O1337   2.129       .  S
Cd1335     O1550   2.019   1_554  S
Cd1336     O1340   2.101       .  S
Cd1336     O1349   2.116   1_554  S
Cd1336     O1550   2.014   1_554  S
O1337      C1347   1.284       .  A
O1338     Cd1547   1.991       .  S
O1338     Cd1548   2.020       .  S
O1338     Cd1339   1.985       .  S
Cd1339     O1341   2.052       .  S
O1340      C1347   1.279       .  A
C1342      O1346   1.267   1_554  A
C1342      C1417   1.460       .  S
C1343      C1402   1.486       .  S
C1345      C1385   1.470       .  S
O1346     Zn1545   1.970       .  S
C1347      C1434   1.500       .  S
C1348      O1561   1.278       .  A
C1348      C1442   1.475       .  S
O1349      C1560   1.280       .  A
O1350      C1366   1.267       .  A
C1351      O1367   1.278       .  A
C1351      O1364   1.271       .  A
C1351      C1477   1.470       .  S
O1352      C1365   1.282       .  A
O1352     Cd1359   2.115       .  S
O1353      C1371   1.275       .  A
O1353     Cd1362   2.070       .  S
O1354      C1368   1.266       .  A
O1355      C1366   1.277       .  A
O1355     Cd1358   2.078       .  S
Zn1356     O1367   2.042       .  S
Zn1356     O1361   1.945       .  S
O1357      C1368   1.280       .  A
O1357     Cd1362   2.098       .  S
Cd1358     O1360   2.074       .  S
Cd1359     O1363   2.111       .  S
Cd1359     O1372   2.126       .  S
O1360      C1370   1.276       .  A
O1361     Cd1362   1.994       .  S
Cd1362     O1364   2.051       .  S
O1363      C1370   1.281       .  A
C1365      O1369   1.269       .  A
C1365      C1446   1.480       .  S
C1366      C1377   1.465       .  S
C1368      C1398   1.468       .  S
C1370      C1430   1.485       .  S
C1371      C1458   1.473       .  S
C1373      C1374   1.328       .  D
C1373      H1375   1.089       .  S
C1374      H1376   1.089       .  S
C1377      C1378   1.338       .  D
C1377      H1379   1.087       .  S
C1378      H1380   1.088       .  S
C1381      C1382   1.339       .  D
C1381      H1383   1.087   1_565  S
C1382      H1384   1.088       .  S
C1385      C1386   1.344       .  D
C1385      H1387   1.087       .  S
C1386      H1388   1.088       .  S
C1389      C1390   1.355       .  D
C1389      H1391   1.087       .  S
C1390      H1392   1.083       .  S
C1393      C1394   1.344       .  D
C1393      H1395   1.086       .  S
C1394      H1396   1.089       .  S
C1397      C1398   1.339       .  D
C1397      H1399   1.088       .  S
C1398      H1400   1.085       .  S
C1401      C1402   1.352       .  D
C1401      H1403   1.088       .  S
C1402      H1404   1.086       .  S
C1405      C1406   1.336       .  D
C1405      H1407   1.087   1_554  S
C1406      H1408   1.089       .  S
C1409      C1410   1.205       .  T
C1411      C1412   1.207       .  T
C1413      C1414   1.334       .  D
C1413      H1415   1.089       .  S
C1414      H1416   1.087       .  S
C1417      C1418   1.335       .  D
C1417      H1419   1.087   1_554  S
C1418      H1420   1.088       .  S
C1421      C1422   1.341       .  D
C1421      H1423   1.087   1_565  S
C1422      H1424   1.088       .  S
C1425      C1426   1.345       .  D
C1425      H1427   1.088       .  S
C1426      H1428   1.087       .  S
C1429      C1430   1.356       .  D
C1429      H1431   1.087       .  S
C1430      H1432   1.086       .  S
C1433      C1434   1.354       .  D
C1433      H1435   1.087       .  S
C1434      H1436   1.086       .  S
C1437      C1438   1.195       .  T
C1439      C1440   1.212       .  T
C1441      C1442   1.350       .  D
C1441      H1443   1.088       .  S
C1442      H1444   1.080       .  S
C1445      C1446   1.363       .  D
C1445      H1447   1.087       .  S
C1446      H1448   1.083       .  S
C1449      C1450   1.345       .  D
C1449      H1451   1.086       .  S
C1450      H1452   1.090       .  S
C1453      C1454   1.194       .  T
C1455      C1456   1.199       .  T
C1457      C1458   1.347       .  D
C1457      H1459   1.088       .  S
C1458      H1460   1.087   1_655  S
C1461      C1462   1.340       .  D
C1461      H1463   1.087       .  S
C1462      H1464   1.089       .  S
C1465      C1466   1.347       .  D
C1465      H1467   1.088       .  S
C1466      H1468   1.085       .  S
C1469      C1470   1.215       .  T
C1470      C1471   1.425       .  S
C1471      C1472   1.215       .  T
C1473      C1474   1.345       .  D
C1473      H1475   1.088       .  S
C1474      H1476   1.084       .  S
C1477      C1478   1.340       .  D
C1477      H1479   1.087       .  S
C1478      H1480   1.089       .  S
C1481      C1482   1.349       .  D
C1481      H1483   1.088       .  S
C1482      H1484   1.084       .  S
C1485      C1681   1.475       .  S
C1485      C1685   1.536       .  S
C1485      C1690   1.537       .  S
C1485      C1693   1.529       .  S
C1486      C1668   1.461       .  S
C1486      C1669   1.524       .  S
C1486      C1674   1.518       .  S
C1486      C1677   1.517       .  S
C1487      C1649   1.473       .  S
C1487      C1653   1.541       .  S
C1487      C1657   1.544       .  S
C1487      C1662   1.536       .  S
C1488      C1684   1.472       .  S
C1488      C1638   1.526       .  S
C1488      C1641   1.515       .  S
C1488      C1645   1.521       .  S
C1489      C1621   1.488       .  S
C1489      C1625   1.529       .  S
C1489      C1630   1.527       .  S
C1489      C1634   1.536       .  S
C1490      C1652   1.477       .  S
C1490      C1609   1.535       .  S
C1490      C1613   1.525       .  S
C1490      C1618   1.518       .  S
C1491      C1624   1.483       .  S
C1491      C1598   1.529       .  S
C1491      C1601   1.554       .  S
C1491      C1606   1.528       .  S
C1492      C1665   1.464       .  S
C1492      C1586   1.534       .  S
C1492      C1590   1.531       .  S
C1492      C1594   1.530       .  S
O1493      C1509   1.270       .  A
O1493     Zn1499   1.994   1_565  S
C1494      O1510   1.279       .  A
C1494      O1507   1.263       .  A
C1494      C1678   1.464       .  S
O1495     Cd1502   2.128       .  S
O1496      C1514   1.266       .  A
O1497      C1511   1.283       .  A
O1497     Cd1501   2.131       .  S
O1498      C1509   1.284       .  A
O1500      C1511   1.271   1_545  A
Cd1502     O1506   2.106       .  S
Cd1502     O1515   2.123       .  S
O1503      C1513   1.281       .  A
Cd1505     O1507   2.005       .  S
C1508      O1512   1.276       .  A
C1508      C1605   1.483       .  S
C1509      C1661   1.487       .  S
C1511      C1633   1.484       .  S
C1513      C1593   1.478       .  S
C1514      C1617   1.467       .  S
O1516      C1532   1.285       .  A
C1517      O1533   1.282       .  A
C1517      O1530   1.276       .  A
C1517      C1602   1.489       .  S
O1518      C1531   1.272       .  A
O1518     Cd1525   2.049       .  S
O1519      C1537   1.279       .  A
O1520      C1534   1.273       .  A
O1520     Cd1524   2.066       .  S
O1521      C1532   1.268       .  A
O1521     Cd1524   2.034       .  S
Zn1522     O1533   2.089       .  S
Zn1522     O1535   2.053       .  S
Zn1522     O1527   1.969       .  S
O1523      C1534   1.278       .  A
O1523     Cd1528   2.113       .  S
Cd1524     O1526   2.062       .  S
Cd1525     O1529   2.084       .  S
Cd1525     O1538   2.033       .  S
Cd1525     O1527   1.999       .  S
O1526      C1536   1.272       .  A
C1531      O1535   1.279       .  A
C1531      C1637   1.473       .  S
C1532      C1585   1.483       .  S
C1534      C1686   1.479       .  S
C1536      C1626   1.474       .  S
C1537      O1538   1.269       .  A
C1537      C1673   1.467       .  S
O1539      C1555   1.283       .  A
C1540      O1556   1.268       .  A
C1540      O1553   1.279       .  A
C1540      C1694   1.487       .  S
O1541      C1554   1.278       .  A
O1541     Cd1548   2.085       .  S
O1542      C1560   1.277       .  A
O1542     Cd1551   2.083       .  S
O1543      C1557   1.284       .  A
O1544      C1555   1.272       .  A
O1544     Cd1547   2.059       .  S
Zn1545     O1556   2.007       .  S
Zn1545     O1550   1.943       .  S
O1546      C1557   1.274       .  A
O1546     Cd1551   2.062       .  S
Cd1547     O1549   2.040       .  S
Cd1548     O1552   2.091       .  S
Cd1548     O1561   2.105       .  S
O1549      C1559   1.272       .  A
O1550     Cd1551   1.995       .  S
Cd1551     O1553   2.101       .  S
O1552      C1559   1.276       .  A
C1554      O1558   1.273       .  A
C1554      C1629   1.473       .  S
C1555      C1614   1.484       .  S
C1557      C1597   1.483       .  S
C1559      C1646   1.474       .  S
C1560      C1654   1.487       .  S
O1562      C1578   1.284       .  A
C1563      O1579   1.278       .  A
C1563      O1576   1.281       .  A
C1563      C1689   1.493       .  S
O1564      C1577   1.276       .  A
O1564     Cd1571   2.076       .  S
O1565      C1583   1.280       .  A
O1565     Cd1574   2.104       .  S
O1566      C1580   1.268   1_455  A
O1567      C1578   1.271       .  A
O1567     Cd1570   2.041       .  S
Zn1568     O1579   2.048       .  S
Zn1568     O1573   1.952   1_655  S
O1569      C1580   1.281       .  A
O1569     Cd1574   2.121       .  S
Cd1570     O1572   2.044       .  S
Cd1571     O1575   2.087       .  S
Cd1571     O1584   2.096       .  S
O1572      C1582   1.272       .  A
O1573     Cd1574   2.022   1_455  S
Cd1574     O1576   2.103       .  S
O1575      C1582   1.276       .  A
C1577      O1581   1.279       .  A
C1577      C1658   1.486       .  S
C1578      C1589   1.480       .  S
C1580      C1610   1.472       .  S
C1582      C1642   1.473       .  S
C1583      C1670   1.473       .  S
C1585      C1586   1.340       .  D
C1585      H1587   1.084       .  S
C1586      H1588   1.089       .  S
C1589      C1590   1.341       .  D
C1589      H1591   1.084       .  S
C1590      H1592   1.089       .  S
C1593      C1594   1.346       .  D
C1593      H1595   1.087   1_565  S
C1594      H1596   1.087       .  S
C1597      C1598   1.342       .  D
C1597      H1599   1.085       .  S
C1598      H1600   1.088       .  S
C1601      C1602   1.357       .  D
C1601      H1603   1.087       .  S
C1602      H1604   1.084       .  S
C1605      C1606   1.355       .  D
C1605      H1607   1.086   1_556  S
C1606      H1608   1.088       .  S
C1609      C1610   1.345       .  D
C1609      H1611   1.087       .  S
C1610      H1612   1.084       .  S
C1613      C1614   1.341       .  D
C1613      H1615   1.089       .  S
C1614      H1616   1.086       .  S
C1617      C1618   1.341       .  D
C1617      H1619   1.087       .  S
C1618      H1620   1.088       .  S
C1621      C1622   1.211       .  T
C1623      C1624   1.208       .  T
C1625      C1626   1.348       .  D
C1625      H1627   1.087       .  S
C1626      H1628   1.087       .  S
C1629      C1630   1.345       .  D
C1629      H1631   1.087       .  S
C1630      H1632   1.087       .  S
C1633      C1634   1.344       .  D
C1633      H1635   1.087       .  S
C1634      H1636   1.087       .  S
C1637      C1638   1.345       .  D
C1637      H1639   1.087       .  S
C1638      H1640   1.087       .  S
C1641      C1642   1.348       .  D
C1641      H1643   1.088       .  S
C1642      H1644   1.086       .  S
C1645      C1646   1.352       .  D
C1645      H1647   1.088       .  S
C1646      H1648   1.087       .  S
C1649      C1650   1.202       .  T
C1651      C1652   1.201       .  T
C1653      C1654   1.352       .  D
C1653      H1655   1.087       .  S
C1654      H1656   1.080       .  S
C1657      C1658   1.355       .  D
C1657      H1659   1.087       .  S
C1658      H1660   1.085       .  S
C1661      C1662   1.342       .  D
C1661      H1663   1.087       .  S
C1662      H1664   1.089       .  S
C1665      C1666   1.198   1_565  T
C1667      C1668   1.195       .  T
C1669      C1670   1.343       .  D
C1669      H1671   1.087       .  S
C1670      H1672   1.087   1_655  S
C1673      C1674   1.339       .  D
C1673      H1675   1.087       .  S
C1674      H1676   1.088       .  S
C1677      C1678   1.332       .  D
C1677      H1679   1.089       .  S
C1678      H1680   1.087       .  S
C1681      C1682   1.203       .  T
C1682      C1683   1.405       .  S
C1683      C1684   1.202       .  T
C1685      C1686   1.350       .  D
C1685      H1687   1.086       .  S
C1686      H1688   1.087       .  S
C1689      C1690   1.350       .  D
C1689      H1691   1.086       .  S
C1690      H1692   1.089       .  S
C1693      C1694   1.339       .  D
C1693      H1695   1.090       .  S
C1694      H1696   1.086       .  S
