geometry optimzed in LAMMPS
_audit_creation_date              2020-11-30 
_audit_creation_method            'lammps2cif' 
_symmetry_space_group_name_H-M    'P1' 
_symmetry_Int_Tables_number       1 
_symmetry_cell_setting            triclinic 
loop_ 
_symmetry_equiv_pos_as_xyz 
  x,y,z 
_cell_length_a                    55.49642064 
_cell_length_b                    55.68150149215375 
_cell_length_c                    48.36935300482586 
_cell_angle_alpha                 89.98767380504508 
_cell_angle_beta                  90.32167896199402 
_cell_angle_gamma                 90.12914780683863 
loop_ 
_atom_site_label 
_atom_site_type_symbol 
_atom_site_fract_x 
_atom_site_fract_y 
_atom_site_fract_z 
_atom_site_charge 
C1          C  0.41197067  0.89349036  0.00501232     0.86500
C2          C  0.39769646  0.88190813  0.02869517    -0.53700
C3          C  0.37368468  0.88737261  0.02874291     0.09500
C4          C  0.36580034  0.90346314  0.00421187     0.20400
C5          C  0.39890032  0.88583418  0.97827316    -0.54400
C6          C  0.37482170  0.89079011  0.97771767     0.09600
C7          C  0.40594915  0.92060747  0.00712240    -0.54000
C8          C  0.38197734  0.92572975  0.00691235     0.10100
H9          H  0.40628844  0.87168855  0.04512951     0.14700
H10         H  0.34629238  0.90787402  0.00386596     0.00400
H11         H  0.40817756  0.87795173  0.96078357     0.15000
H12         H  0.41888134  0.93515325  0.00702667     0.14700
C13         C  0.59311472  0.88022148  0.99665430     0.86500
C14         C  0.60764037  0.87147628  0.97152059    -0.53700
C15         C  0.63123393  0.87855863  0.97175790     0.09500
C16         C  0.63844506  0.89331543  0.99743311     0.20400
C17         C  0.60754800  0.87088429  0.02204293    -0.54400
C18         C  0.63118218  0.87779391  0.02243317     0.09600
C19         C  0.59721178  0.90762003  0.99766540    -0.54000
C20         C  0.62076631  0.91443924  0.99763612     0.10100
H21         H  0.59970004  0.86132793  0.95458775     0.14700
H22         H  0.65758295  0.89920196  0.99773426     0.00400
H23         H  0.60014642  0.86071796  0.03904283     0.15000
H24         H  0.58263696  0.92060124  0.99835590     0.14700
C25         C  0.59476231  0.12742224  0.99742949     0.86500
C26         C  0.60884618  0.13648662  0.02290232    -0.53700
C27         C  0.63275452  0.13080541  0.02282456     0.09500
C28         C  0.64060889  0.11619683  0.99735769     0.20400
C29         C  0.60858457  0.13708818  0.97224775    -0.54400
C30         C  0.63255042  0.13141806  0.97214177     0.09600
C31         C  0.60010624  0.10021065  0.99642073    -0.54000
C32         C  0.62382647  0.09406136  0.99725118     0.10100
H33         H  0.60045729  0.14621161  0.03975477     0.14700
H34         H  0.66003012  0.11159681  0.99765741     0.00400
H35         H  0.59996669  0.14697174  0.95555970     0.15000
H36         H  0.58665964  0.08612356  0.99437001     0.14700
C37         C  0.41425096  0.13946570  0.99566911     0.86500
C38         C  0.39911175  0.14917965  0.97137961    -0.53700
C39         C  0.37600539  0.14080202  0.97054267     0.09500
C40         C  0.36951085  0.12436609  0.99515452     0.20400
C41         C  0.39961692  0.14691645  0.02136139    -0.54400
C42         C  0.37636114  0.13889501  0.02128982     0.09600
C43         C  0.41136767  0.11195478  0.99455332    -0.54000
C44         C  0.38808711  0.10386432  0.99389951     0.10100
H45         H  0.40626306  0.16114318  0.95570187     0.14700
H46         H  0.35054186  0.11798405  0.99481389     0.00400
H47         H  0.40641914  0.15765732  0.03832117     0.15000
H48         H  0.42671861  0.09990589  0.99506688     0.14700
In49       In  0.33145449  0.87806966  0.09881766     1.36900
C50         C  0.35820640  0.88257106  0.05308158     0.77600
O51         O  0.32101728  0.84082048  0.08522547    -0.60800
O52         O  0.29346949  0.86604464  0.09439231    -0.51700
C53         C  0.34317348  0.86513635  0.15055917     0.70300
O54         O  0.35888459  0.86929710  0.13233429    -0.46600
C55         C  0.32137948  0.92353456  0.10984292     0.75000
O56         O  0.36524810  0.87096592  0.07409790    -0.58400
O57         O  0.30704244  0.90997984  0.09683000    -0.48500
O58         O  0.33726925  0.89100688  0.05515683    -0.54900
C59         C  0.29873396  0.84487049  0.08756257     0.85200
O60         O  0.32187708  0.86643373  0.14161800    -0.56800
O61         O  0.34101260  0.91383421  0.11664507    -0.60100
In62       In  0.33212593  0.14631386  0.08970451     1.36900
C63         C  0.36020353  0.14256319  0.04524157     0.77600
O64         O  0.34503088  0.11002084  0.10001015    -0.60800
O65         O  0.30758260  0.11411349  0.09149263    -0.51700
C66         C  0.33982717  0.15394170  0.14368524     0.70300
O67         O  0.35653924  0.15510592  0.12600983    -0.46600
C68         C  0.30409531  0.18315047  0.07630491     0.75000
O69         O  0.36696434  0.15287978  0.06729967    -0.58400
O70         O  0.29711229  0.16159020  0.07432207    -0.48500
O71         O  0.33881103  0.13493364  0.04564303    -0.54900
C72         C  0.32465862  0.10014196  0.09811349     0.85200
O73         O  0.31927531  0.15011953  0.13327246    -0.56800
O74         O  0.32555545  0.18567385  0.08460302    -0.60100
In75       In  0.65005582  0.83346788  0.40473101     1.36900
C76         C  0.64578878  0.86232924  0.44868656     0.77600
O77         O  0.61426149  0.84630783  0.39045184    -0.60800
O78         O  0.61627843  0.81082162  0.40592095    -0.51700
C79         C  0.66210992  0.84167838  0.35201684     0.70300
O80         O  0.66219761  0.85815271  0.37002850    -0.46600
C81         C  0.68394636  0.80198248  0.41928988     0.75000
O82         O  0.65604866  0.86887802  0.42663205    -0.58400
O83         O  0.66234117  0.79608542  0.41450527    -0.48500
O84         O  0.63904543  0.84071747  0.44872126    -0.54900
C85         C  0.60307603  0.82731963  0.39625679     0.85200
O86         O  0.65669440  0.82127404  0.36135864    -0.56800
O87         O  0.68802403  0.82423478  0.41734567    -0.60100
In88       In  0.37770929  0.84153677  0.41061878     1.36900
C89         C  0.38204516  0.87128649  0.45338024     0.77600
O90         O  0.33899202  0.83490526  0.42201925    -0.60800
O91         O  0.36279831  0.80522845  0.41976922    -0.51700
C92         C  0.36863178  0.84799089  0.35689170     0.70300
O93         O  0.36844450  0.86519965  0.37399651    -0.46600
C94         C  0.42385085  0.83114130  0.40493188     0.75000
O95         O  0.37248351  0.87781916  0.43078964    -0.58400
O96         O  0.40977145  0.81801760  0.41874139    -0.48500
O97         O  0.38844754  0.84964215  0.45410576    -0.54900
C98         C  0.34162309  0.81244696  0.42393473     0.85200
O99         O  0.37233269  0.82773333  0.36773322    -0.56800
O100        O  0.41438598  0.84969036  0.39468935    -0.60100
In101      In  0.67698510  0.86976240  0.08990477     1.36900
C102        C  0.64755809  0.87333879  0.04621081     0.77600
O103        O  0.66583104  0.90678460  0.10132761    -0.60800
O104        O  0.70081792  0.90190538  0.08481597    -0.51700
C105        C  0.67132589  0.86168729  0.14423703     0.70300
O106        O  0.65424562  0.85874781  0.12708234    -0.46600
C107        C  0.70719729  0.83458278  0.07683783     0.75000
O108        O  0.64081829  0.86413485  0.06885098    -0.58400
O109        O  0.71389898  0.85597223  0.08073988    -0.48500
O110        O  0.66938389  0.87954716  0.04576019    -0.54900
C111        C  0.68548187  0.91640130  0.09429317     0.85200
O112        O  0.69086470  0.86780669  0.13314321    -0.56800
O113        O  0.68477330  0.83123990  0.07895272    -0.60100
In114      In  0.68015961  0.14153428  0.08814378     1.36900
C115        C  0.64940239  0.13628662  0.04596864     0.77600
O116        O  0.68820135  0.18004416  0.07719973    -0.60800
O117        O  0.71695703  0.15516546  0.07773415    -0.51700
C118        C  0.67458659  0.14973854  0.14227795     0.70300
O119        O  0.65913312  0.15646799  0.12455299    -0.46600
C120        C  0.68901944  0.09528392  0.09146502     0.75000
O121        O  0.64276795  0.14440343  0.06914183    -0.58400
O122        O  0.70359110  0.10972256  0.08026251    -0.48500
O123        O  0.67161159  0.13221413  0.04425376    -0.54900
C124        C  0.71044496  0.17658183  0.07384765     0.85200
O125        O  0.69274651  0.13961390  0.13204751    -0.56800
O126        O  0.67018380  0.10457614  0.10121804    -0.60100
In127      In  0.38140746  0.18737321  0.40054450     1.36900
C128        C  0.38780180  0.16039995  0.44614514     0.77600
O129        O  0.41669344  0.17362744  0.38523948    -0.60800
O130        O  0.41469300  0.21023313  0.39663112    -0.51700
C131        C  0.36579296  0.17770744  0.34923753     0.70300
O132        O  0.36601499  0.16200329  0.36816872    -0.46600
C133        C  0.34809591  0.21978426  0.41436779     0.75000
O134        O  0.37809837  0.15233688  0.42430833    -0.58400
O135        O  0.37018167  0.22486458  0.41215669    -0.48500
O136        O  0.39296687  0.18241853  0.44507015    -0.54900
C137        C  0.42764018  0.19336875  0.38766846     0.85200
O138        O  0.37310572  0.19810557  0.35685014    -0.56800
O139        O  0.34330795  0.19781739  0.41063356    -0.60100
In140      In  0.65222225  0.18089071  0.40231613     1.36900
C141        C  0.64759830  0.15237599  0.44648232     0.77600
O142        O  0.68899223  0.19162261  0.41778885    -0.60800
O143        O  0.66282603  0.21865959  0.41051845    -0.51700
C144        C  0.66459379  0.17134401  0.34999845     0.70300
O145        O  0.66214349  0.15514960  0.36810541    -0.46600
C146        C  0.60619423  0.18946699  0.39256661     0.75000
O147        O  0.65995956  0.14645595  0.42567768    -0.58400
O148        O  0.61933919  0.20359545  0.40635632    -0.48500
O149        O  0.63828266  0.17288057  0.44481004    -0.54900
C150        C  0.68405408  0.21376687  0.41782284     0.85200
O151        O  0.66270907  0.19239475  0.35930103    -0.56800
O152        O  0.61669716  0.17108746  0.38349122    -0.53700
C153        C  0.64050489  0.91684158  0.49728128     0.86500
C154        C  0.64889952  0.90208450  0.52271917    -0.53700
C155        C  0.64095618  0.87884146  0.52277794     0.09500
C156        C  0.62532597  0.87225875  0.49738829     0.20400
C157        C  0.64901208  0.90208340  0.47234843    -0.54400
C158        C  0.64106106  0.87884353  0.47211833     0.09600
C159        C  0.61301577  0.91395323  0.49753250    -0.54000
C160        C  0.60462310  0.89087477  0.49742997     0.10100
H161        H  0.65932226  0.90901321  0.53990379     0.14700
H162        H  0.61919312  0.85333094  0.49783997     0.00400
H163        H  0.65998078  0.90961317  0.45594999     0.15000
H164        H  0.60107981  0.92938300  0.49760359     0.14700
C165        C  0.39113430  0.92584477  0.50101908     0.86500
C166        C  0.38047896  0.91130764  0.47674274    -0.53700
C167        C  0.38678587  0.88764078  0.47681013     0.09500
C168        C  0.40237393  0.88023964  0.50182420     0.20400
C169        C  0.38226359  0.91226593  0.52708510    -0.54400
C170        C  0.38820997  0.88846376  0.52742242     0.09600
C171        C  0.41843358  0.92070913  0.50054512    -0.54000
C172        C  0.42426501  0.89698351  0.50074619     0.10100
H173        H  0.36982945  0.91932008  0.46026378     0.14700
H174        H  0.40744542  0.86095130  0.50204901     0.00400
H175        H  0.37270569  0.92019339  0.54420700     0.15000
H176        H  0.43206029  0.93474049  0.49991984     0.14700
C177        C  0.64112573  0.09864897  0.49628753     0.86500
C178        C  0.65025861  0.11294184  0.47087593    -0.53700
C179        C  0.64336378  0.13642992  0.47049439     0.09500
C180        C  0.62812433  0.14380711  0.49560825     0.20400
C181        C  0.65030745  0.11318013  0.52119823    -0.54400
C182        C  0.64302513  0.13653317  0.52133599     0.09600
C183        C  0.61362883  0.10273527  0.49581613    -0.54000
C184        C  0.60666718  0.12629398  0.49512760     0.10100
H185        H  0.66040217  0.10564636  0.45385508     0.14700
H186        H  0.62269211  0.16298388  0.49531330     0.00400
H187        H  0.66066421  0.10530714  0.53801077     0.15000
H188        H  0.60080052  0.08802093  0.49662118     0.14700
C189        C  0.40034102  0.10821246  0.49700394     0.86500
C190        C  0.38821056  0.12111263  0.52131041    -0.53700
C191        C  0.39131673  0.14542806  0.52148490     0.09500
C192        C  0.40630225  0.15497030  0.49694820     0.20400
C193        C  0.39074633  0.12079685  0.47073362    -0.54400
C194        C  0.39370732  0.14522216  0.47059585     0.09600
C195        C  0.42690456  0.11663940  0.49860289    -0.54000
C196        C  0.42997803  0.14085270  0.49895134     0.10100
H197        H  0.37900566  0.11157841  0.53777195     0.14700
H198        H  0.40908898  0.17472961  0.49702717     0.00400
H199        H  0.38301370  0.11106012  0.45336096     0.15000
H200        H  0.44262094  0.10524575  0.49869894     0.14700
In201      In  0.33283401  0.88176760  0.90658452     1.36900
C202        C  0.35977095  0.88672725  0.95262946     0.77600
O203        O  0.34132824  0.91943902  0.89461045    -0.60800
O204        O  0.30545052  0.91142853  0.90628024    -0.51700
C205        C  0.34348101  0.87299285  0.85341740     0.70300
O206        O  0.35936651  0.87310757  0.87230750    -0.46600
C207        C  0.30484761  0.84402666  0.91707083     0.75000
O208        O  0.36790141  0.87800620  0.93042356    -0.58400
O209        O  0.29759497  0.86538074  0.91930356    -0.48500
O210        O  0.33784009  0.89231153  0.95143304    -0.54900
C211        C  0.32023419  0.92718085  0.89826889     0.85200
O212        O  0.32247445  0.87691369  0.86213092    -0.56800
O213        O  0.32672393  0.84196392  0.91058304    -0.60100
In214      In  0.33034523  0.14979566  0.90283492     1.36900
C215        C  0.35973685  0.14501028  0.94666592     0.77600
O216        O  0.32255188  0.18849103  0.91381271    -0.60800
O217        O  0.29364172  0.16384649  0.91167031    -0.51700
C218        C  0.34009655  0.15740541  0.84911850     0.70300
O219        O  0.35589024  0.15981983  0.86789244    -0.46600
C220        C  0.31765673  0.10427677  0.89806570     0.75000
O221        O  0.36616540  0.15551159  0.92472529    -0.58400
O222        O  0.30464361  0.11949796  0.91014898    -0.48500
O223        O  0.33838231  0.13750161  0.94623818    -0.54900
C224        C  0.30014589  0.18514522  0.91600096     0.85200
O225        O  0.31940840  0.15262168  0.85818370    -0.56800
O226        O  0.33711721  0.11231515  0.88836300    -0.60100
In227      In  0.37864645  0.18795651  0.59014096     1.36900
C228        C  0.38473924  0.16047681  0.54546916     0.77600
O229        O  0.33895897  0.19430540  0.58251772    -0.60800
O230        O  0.36330871  0.22366772  0.57970767    -0.51700
C231        C  0.36979242  0.17950468  0.64369555     0.70300
O232        O  0.36848432  0.16304348  0.62563923    -0.46600
C233        C  0.42447637  0.19989246  0.59506690     0.75000
O234        O  0.37684895  0.15210985  0.56801322    -0.58400
O235        O  0.40922326  0.21371289  0.58404877    -0.48500
O236        O  0.38799156  0.18280229  0.54549705    -0.54900
C237        C  0.34181544  0.21648627  0.57808716     0.85200
O238        O  0.37544506  0.19975193  0.63403724    -0.56800
O239        O  0.41614253  0.18036190  0.60413370    -0.60100
In240      In  0.64884708  0.18084997  0.58959383     1.36900
C241        C  0.64620757  0.15229421  0.54563448     0.77600
O242        O  0.61087132  0.17089891  0.59769584    -0.60800
O243        O  0.61854282  0.20701840  0.58653271    -0.51700
C244        C  0.65537130  0.17593837  0.64414620     0.70300
O245        O  0.65666355  0.15831910  0.62762580    -0.46600
C246        C  0.68615122  0.20741564  0.57556804     0.75000
O247        O  0.65452015  0.14511986  0.56863986    -0.58400
O248        O  0.66470270  0.21479251  0.57409630    -0.48500
O249        O  0.63976723  0.17393366  0.54524276    -0.54900
C250        C  0.60276930  0.19172474  0.59316073     0.85200
O251        O  0.65158676  0.19573254  0.63234570    -0.56800
O252        O  0.68849767  0.18615641  0.58416847    -0.60100
In253      In  0.37686621  0.84219412  0.59335046     1.36900
C254        C  0.38325101  0.87229097  0.55098920     0.77600
O255        O  0.41440090  0.84911533  0.60780019    -0.60800
O256        O  0.40644701  0.81511605  0.58971941    -0.51700
C257        C  0.36724391  0.84812090  0.64723539     0.70300
O258        O  0.36895953  0.86559875  0.63058224    -0.46600
C259        C  0.33950174  0.81634821  0.57580972     0.75000
O260        O  0.37294623  0.87876904  0.57301681    -0.58400
O261        O  0.36081211  0.80855175  0.57557342    -0.48500
O262        O  0.38973414  0.85069369  0.55075365    -0.54900
C263        C  0.42214093  0.82895200  0.60004810     0.85200
O264        O  0.36972753  0.82791845  0.63586334    -0.56800
O265        O  0.33737279  0.83751418  0.58477957    -0.60100
In266      In  0.64762922  0.83374167  0.59079129     1.36900
C267        C  0.64490041  0.86234512  0.54646081     0.77600
O268        O  0.68504069  0.82305806  0.57815229    -0.60800
O269        O  0.65851538  0.79579183  0.58232924    -0.51700
C270        C  0.65733002  0.84324412  0.64414434     0.70300
O271        O  0.65755599  0.85928462  0.62567903    -0.46600
C272        C  0.60074526  0.82769239  0.59594025     0.75000
O273        O  0.65671177  0.86804734  0.56794718    -0.58400
O274        O  0.61439705  0.81075123  0.58866068    -0.48500
O275        O  0.63575849  0.84163825  0.54720898    -0.54900
C276        C  0.68006458  0.80094745  0.57669190     0.85200
O277        O  0.65349864  0.82243394  0.63491940    -0.56800
O278        O  0.61133769  0.84715901  0.60131297    -0.60100
In279      In  0.67816590  0.87214860  0.90592510     1.36900
C280        C  0.64785487  0.87483885  0.94838255     0.77600
O281        O  0.68437007  0.83282938  0.91288625    -0.60800
O282        O  0.71391950  0.85664395  0.91754004    -0.51700
C283        C  0.67236833  0.86515925  0.85153453     0.70300
O284        O  0.65545592  0.86226319  0.86866338    -0.46600
C285        C  0.68807620  0.91831078  0.90233716     0.75000
O286        O  0.64140851  0.86660138  0.92511697    -0.58400
O287        O  0.70252247  0.90377831  0.91368623    -0.48500
O288        O  0.66972066  0.88072459  0.94994732    -0.54900
C289        C  0.70653136  0.83519605  0.91804771     0.85200
O290        O  0.69213461  0.87120740  0.86251819    -0.56800
O291        O  0.66860249  0.90924339  0.89371456    -0.60100
In292      In  0.67710680  0.14268282  0.90474668     1.36900
C293        C  0.64862678  0.13731667  0.94872250     0.77600
O294        O  0.66437210  0.10683465  0.89076517    -0.60800
O295        O  0.70068602  0.11010515  0.90398900    -0.51700
C296        C  0.66962734  0.15487850  0.85189138     0.70300
O297        O  0.65299790  0.15571357  0.86966103    -0.46600
C298        C  0.70948290  0.17544505  0.91919641     0.75000
O299        O  0.64158964  0.14775659  0.92689735    -0.58400
O300        O  0.71407202  0.15331123  0.91830914    -0.48500
O301        O  0.67043886  0.13125437  0.94853981    -0.54900
C302        C  0.68412277  0.09644502  0.89527451     0.85200
O303        O  0.68976036  0.14877135  0.86174843    -0.56800
O304        O  0.68781566  0.18076336  0.91387277    -0.60100
C305        C  0.88223166  0.59552489  0.00155419     0.86500
C306        C  0.87263301  0.60914929  0.02706747    -0.53700
C307        C  0.87874305  0.63287422  0.02787461     0.09500
C308        C  0.89384229  0.64115223  0.00277004     0.20400
C309        C  0.87237059  0.61009215  0.97694616    -0.54400
C310        C  0.87873062  0.63378778  0.97712960     0.09600
C311        C  0.90952840  0.60045106  0.00217202    -0.54000
C312        C  0.91572282  0.62411155  0.00258763     0.10100
H313        H  0.86212396  0.60137951  0.04353893     0.14700
H314        H  0.89899968  0.66043229  0.00323961     0.00400
H315        H  0.86186661  0.60210326  0.96030410     0.15000
H316        H  0.92294557  0.58626699  0.00202129     0.14700
C317        C  0.88474368  0.41344784  0.99391913     0.86500
C318        C  0.87519531  0.39924404  0.96860515    -0.53700
C319        C  0.88162327  0.37557016  0.96865232     0.09500
C320        C  0.89692699  0.36810340  0.99392423     0.20400
C321        C  0.87540335  0.39936365  0.01885212    -0.54400
C322        C  0.88185922  0.37581828  0.01927661     0.09600
C323        C  0.91206619  0.40892429  0.99330886    -0.54000
C324        C  0.91890161  0.38533139  0.99338788     0.10100
H325        H  0.86523158  0.40680335  0.95142812     0.14700
H326        H  0.90160009  0.34881758  0.99350056     0.00400
H327        H  0.86503819  0.40762494  0.03528195     0.15000
H328        H  0.92501571  0.42357590  0.99295995     0.14700
C329        C  0.12821557  0.42631851  0.00047510     0.86500
C330        C  0.13879079  0.41322490  0.02592016    -0.53700
C331        C  0.13555257  0.38886075  0.02552190     0.09500
C332        C  0.12163714  0.37975988  0.99984838     0.20400
C333        C  0.13896370  0.41385209  0.97525290    -0.54400
C334        C  0.13556691  0.38966589  0.97459303     0.09600
C335        C  0.10147056  0.41827710  0.00078471    -0.54000
C336        C  0.09775715  0.39394924  0.00050335     0.10100
H337        H  0.14687060  0.42252097  0.04339608     0.14700
H338        H  0.11925100  0.36001892  0.99986491     0.00400
H339        H  0.14776540  0.42362864  0.95867783     0.15000
H340        H  0.08646104  0.43055623  0.00262311     0.14700
C341        C  0.13219799  0.60808450  0.00119308     0.86500
C342        C  0.14030714  0.62281461  0.97593457    -0.53700
C343        C  0.13287953  0.64621260  0.97609168     0.09500
C344        C  0.11762076  0.65285896  0.00179802     0.20400
C345        C  0.14064240  0.62219962  0.02655028    -0.54400
C346        C  0.13297736  0.64541200  0.02747053     0.09600
C347        C  0.10462749  0.61133065  0.00059044    -0.54000
C348        C  0.09661384  0.63451162  0.00089718     0.10100
H349        H  0.14842445  0.61510070  0.95774816     0.14700
H350        H  0.11169788  0.67185621  0.00179089     0.00400
H351        H  0.15076165  0.61391391  0.04330294     0.15000
H352        H  0.09228852  0.59617764  0.99961959     0.14700
In353      In  0.84357384  0.37107612  0.40396538     1.36900
C354        C  0.87198876  0.37636404  0.44839639     0.77600
O355        O  0.85556175  0.40741754  0.39149509    -0.60800
O356        O  0.81912680  0.40278316  0.40363382    -0.51700
C357        C  0.84918124  0.36211071  0.35001810     0.70300
O358        O  0.86651835  0.36028172  0.36708624    -0.46600
C359        C  0.81341991  0.33670905  0.41962947     0.75000
O360        O  0.87911278  0.36620607  0.42647731    -0.58400
O361        O  0.80785797  0.35862270  0.41886120    -0.48500
O362        O  0.85027592  0.38278497  0.44779253    -0.54900
C363        C  0.83523310  0.41698005  0.39515047     0.85200
O364        O  0.82938182  0.36725662  0.36106665    -0.56800
O365        O  0.83481133  0.33226707  0.41238157    -0.60100
In366      In  0.84294059  0.64064632  0.41324071     1.36900
C367        C  0.87401745  0.63700432  0.45556671     0.77600
O368        O  0.83403461  0.67972734  0.41743478    -0.60800
O369        O  0.80771493  0.65428023  0.42985342    -0.51700
C370        C  0.84639251  0.64864832  0.35886687     0.70300
O371        O  0.86361071  0.65301405  0.37547661    -0.46600
C372        C  0.83476050  0.59448701  0.40643622     0.75000
O373        O  0.88011062  0.64604107  0.43262875    -0.58400
O374        O  0.81955946  0.60810770  0.41780056    -0.48500
O375        O  0.85220579  0.63098006  0.45686483    -0.54900
C376        C  0.81304748  0.67611431  0.42646856     0.85200
O377        O  0.82758624  0.64094311  0.37046395    -0.56800
O378        O  0.85406697  0.60444303  0.39891691    -0.60100
In379      In  0.86554775  0.67507115  0.09704591     1.36900
C380        C  0.87280917  0.64818690  0.05198443     0.77600
O381        O  0.82617493  0.68139510  0.08709522    -0.60800
O382        O  0.85083231  0.71048538  0.08420909    -0.51700
C383        C  0.85534723  0.66547017  0.15016542     0.70300
O384        O  0.85709201  0.64912750  0.13209944    -0.46600
C385        C  0.91109314  0.68631925  0.10698125     0.75000
O386        O  0.86199533  0.64039315  0.07316873    -0.58400
O387        O  0.89636047  0.70140516  0.09721749    -0.48500
O388        O  0.87891214  0.66990781  0.05347031    -0.54900
C389        C  0.82935230  0.70337169  0.08164061     0.85200
O390        O  0.85751827  0.68639901  0.14050358    -0.56800
O391        O  0.90242466  0.66576763  0.11147649    -0.60100
In392      In  0.13762719  0.68428769  0.10087356     1.36900
C393        C  0.13608493  0.65988857  0.05313887     0.77600
O394        O  0.10202424  0.66767091  0.11000113    -0.60800
O395        O  0.10340336  0.70532479  0.10301350    -0.51700
C396        C  0.14835057  0.67610384  0.15413486     0.70300
O397        O  0.15171207  0.66038435  0.13559229    -0.46600
C398        C  0.17196318  0.71632695  0.09158951     0.75000
O399        O  0.14446989  0.65115436  0.07540964    -0.58400
O400        O  0.14982561  0.72167047  0.09098201    -0.48500
O401        O  0.12957454  0.68148600  0.05503368    -0.54900
C402        C  0.09053574  0.68713689  0.10839293     0.85200
O403        O  0.13989917  0.69557192  0.14501397    -0.56800
O404        O  0.17621554  0.69437455  0.09576156    -0.60100
In405      In  0.18700604  0.38250278  0.40638270     1.36900
C406        C  0.15775703  0.38065642  0.45012267     0.77600
O407        O  0.19830115  0.34425541  0.41576535    -0.60800
O408        O  0.22546584  0.37042160  0.40974962    -0.51700
C409        C  0.17695983  0.37619999  0.35268669     0.70300
O410        O  0.16095335  0.37444237  0.37112245    -0.46600
C411        C  0.19439885  0.42975970  0.40570022     0.75000
O412        O  0.15212453  0.37108571  0.42726163    -0.58400
O413        O  0.20772462  0.41558674  0.41919665    -0.48500
O414        O  0.17822670  0.39040179  0.45048312    -0.54900
C415        C  0.22056021  0.34867305  0.41424058     0.85200
O416        O  0.19779210  0.38030628  0.36209220    -0.56800
O417        O  0.17759000  0.41976537  0.39238222    -0.60100
In418      In  0.18162754  0.65658546  0.41520024     1.36900
C419        C  0.15437964  0.64787607  0.45877317     0.77600
O420        O  0.17018830  0.61925855  0.40619363    -0.60800
O421        O  0.20690189  0.62493870  0.41685791    -0.51700
C422        C  0.17473849  0.66450558  0.36123688     0.70300
O423        O  0.15848196  0.66864867  0.37892154    -0.46600
C424        C  0.20892705  0.69355469  0.43016408     0.75000
O425        O  0.14530042  0.65440443  0.43590545    -0.58400
O426        O  0.21658870  0.67224727  0.42903690    -0.48500
O427        O  0.17699753  0.64907485  0.46015240    -0.54900
C428        C  0.19053591  0.60998834  0.41067434     0.85200
O429        O  0.19434224  0.65730228  0.37153563    -0.56800
O430        O  0.18702096  0.69607548  0.42340968    -0.60100
In431      In  0.87222395  0.33391851  0.08887960     1.36900
C432        C  0.87653586  0.36033523  0.04335698     0.77600
O433        O  0.90801300  0.34913885  0.09785949    -0.60800
O434        O  0.90586765  0.31152725  0.09041493    -0.51700
C435        C  0.86465831  0.34311527  0.14238804     0.70300
O436        O  0.86133382  0.35870904  0.12370025    -0.46600
C437        C  0.83609037  0.30459817  0.07619641     0.75000
O438        O  0.86692545  0.36822729  0.06523741    -0.58400
O439        O  0.85785375  0.29801558  0.07524061    -0.48500
O440        O  0.88230137  0.33849372  0.04424059    -0.54900
C441        C  0.91913405  0.32960179  0.09539518     0.85200
O442        O  0.87053891  0.32270660  0.13327349    -0.56800
O443        O  0.83298369  0.32623940  0.08304559    -0.60100
In444      In  0.14527356  0.34426799  0.09348210     1.36900
C445        C  0.14104563  0.37304522  0.04939268     0.77600
O446        O  0.18319040  0.33411989  0.08163979    -0.60800
O447        O  0.15784271  0.30646582  0.08922882    -0.51700
C448        C  0.15562306  0.35473113  0.14631326     0.70300
O449        O  0.15799125  0.36989522  0.12703979    -0.46600
C450        C  0.09873358  0.33458319  0.09765690     0.75000
O451        O  0.14939807  0.38046088  0.07222677    -0.58400
O452        O  0.11311429  0.32086786  0.08525438    -0.48500
O453        O  0.13640529  0.35092768  0.04887621    -0.54900
C454        C  0.17921573  0.31181548  0.08323960     0.85200
O455        O  0.14879835  0.33429786  0.13825184    -0.56800
O456        O  0.10823543  0.35319253  0.10778517    -0.60100
C457        C  0.92477978  0.38057874  0.50014760     0.86500
C458        C  0.90880959  0.37169587  0.52421647    -0.53700
C459        C  0.88565148  0.37987517  0.52312897     0.09500
C460        C  0.88032459  0.39615772  0.49804680     0.20400
C461        C  0.91093921  0.37296562  0.47398526    -0.54400
C462        C  0.88782798  0.38109309  0.47260478     0.09600
C463        C  0.92230561  0.40809393  0.50164167    -0.54000
C464        C  0.89921700  0.41654676  0.50037346     0.10100
H465        H  0.91488112  0.36086952  0.54143285     0.14700
H466        H  0.86144394  0.40264251  0.49740668     0.00400
H467        H  0.91893477  0.36216250  0.45776118     0.15000
H468        H  0.93777655  0.41995246  0.50377175     0.14700
C469        C  0.92832620  0.63199132  0.50582732     0.86500
C470        C  0.91444220  0.63979625  0.47947468    -0.53700
C471        C  0.89075006  0.63283536  0.47906984     0.09500
C472        C  0.88324616  0.61810057  0.50463657     0.20400
C473        C  0.91326285  0.64118231  0.53025935    -0.54400
C474        C  0.88976243  0.63394738  0.52969843     0.09600
C475        C  0.92459667  0.60438113  0.50576106    -0.54000
C476        C  0.90117053  0.59716582  0.50557695     0.10100
H477        H  0.92273534  0.64898158  0.46218095     0.14700
H478        H  0.86418600  0.61196853  0.50419843     0.00400
H479        H  0.92077577  0.65200711  0.54689198     0.15000
H480        H  0.93900587  0.59130303  0.50459815     0.14700
C481        C  0.12656063  0.59706051  0.50048954     0.86500
C482        C  0.13902401  0.60999495  0.47658522    -0.53700
C483        C  0.14077994  0.63425945  0.47951750     0.09500
C484        C  0.12954550  0.64397661  0.50638849     0.20400
C485        C  0.13979342  0.60522854  0.52675390    -0.54400
C486        C  0.14158797  0.62953064  0.53000184     0.09600
C487        C  0.10199495  0.60978283  0.50240828    -0.54000
C488        C  0.10354357  0.63415426  0.50549823     0.10100
H489        H  0.14633125  0.60058716  0.45881615     0.14700
H490        H  0.13088311  0.66376865  0.50878873     0.00400
H491        H  0.14755481  0.59260895  0.54143796     0.15000
H492        H  0.08457211  0.60109151  0.50137250     0.14700
C493        C  0.10464719  0.37817805  0.50163158     0.86500
C494        C  0.11935928  0.37114388  0.47556543    -0.53700
C495        C  0.14167125  0.38166774  0.47443670     0.09500
C496        C  0.14745382  0.39784277  0.49937481     0.20400
C497        C  0.12129605  0.37159269  0.52613508    -0.54400
C498        C  0.14351387  0.38219528  0.52517064     0.09600
C499        C  0.10458717  0.40577089  0.50066629    -0.54000
C500        C  0.12680463  0.41590386  0.49983999     0.10100
H501        H  0.11288751  0.36002344  0.45876052     0.14700
H502        H  0.16542244  0.40664224  0.49854830     0.00400
H503        H  0.11554793  0.36051369  0.54336914     0.15000
H504        H  0.08824361  0.41649500  0.50060376     0.14700
In505      In  0.87395809  0.33076832  0.90108024     1.36900
C506        C  0.87699687  0.35929558  0.94504656     0.77600
O507        O  0.83677969  0.31914476  0.91308141    -0.60800
O508        O  0.86412680  0.29264322  0.90971820    -0.51700
C509        C  0.86248962  0.33759349  0.84789926     0.70300
O510        O  0.85887271  0.35337706  0.86621780    -0.46600
C511        C  0.92089933  0.32834557  0.89413656     0.75000
O512        O  0.86641445  0.36573315  0.92301597    -0.58400
O513        O  0.90901377  0.31119356  0.90447188    -0.48500
O514        O  0.88452294  0.33798104  0.94494458    -0.54900
C515        C  0.84221588  0.29715014  0.91405770     0.85200
O516        O  0.87095434  0.31823575  0.85730393    -0.56800
O517        O  0.90860222  0.34639693  0.88728026    -0.60100
In518      In  0.14716636  0.34955527  0.90405005     1.36900
C519        C  0.14192433  0.37522104  0.95001482     0.77600
O520        O  0.11070783  0.36439246  0.89604149    -0.60800
O521        O  0.11429871  0.32654722  0.90051464    -0.51700
C522        C  0.15793883  0.35765591  0.85092259     0.70300
O523        O  0.16286007  0.37266820  0.86983368    -0.46600
C524        C  0.18142201  0.31892163  0.91844408     0.75000
O525        O  0.14968424  0.38434502  0.92774016    -0.58400
O526        O  0.15937590  0.31331220  0.91788161    -0.48500
O527        O  0.13867556  0.35286599  0.94913322    -0.54900
C528        C  0.10036551  0.34423287  0.89678476     0.85200
O529        O  0.14800438  0.33872900  0.85958817    -0.56800
O530        O  0.18591055  0.34039054  0.91172979    -0.60100
In531      In  0.19195701  0.38556424  0.59060865     1.36900
C532        C  0.16096986  0.38187630  0.54838370     0.77600
O533        O  0.18358458  0.42482097  0.59038268    -0.60800
O534        O  0.22005209  0.41451529  0.58591623    -0.51700
C535        C  0.18366929  0.37997159  0.64506596     0.70300
O536        O  0.16728533  0.38588370  0.62821092    -0.46600
C537        C  0.22107027  0.34933066  0.57883568     0.75000
O538        O  0.15613568  0.37394051  0.57220637    -0.58400
O539        O  0.22817149  0.37085660  0.57972454    -0.48500
O540        O  0.18172609  0.39081483  0.54616969    -0.54900
C541        C  0.20507548  0.43145671  0.58682429     0.85200
O542        O  0.20397350  0.37755655  0.63407424    -0.56800
O543        O  0.19889028  0.34645812  0.58340932    -0.60100
In544      In  0.18755174  0.65086848  0.59294506     1.36900
C545        C  0.15518763  0.63953557  0.55379211     0.77600
O546        O  0.19425541  0.68942177  0.58082242    -0.60800
O547        O  0.22384633  0.66556713  0.58326527    -0.51700
C548        C  0.17584981  0.66106877  0.64587474     0.70300
O549        O  0.16016800  0.65964057  0.62683294    -0.46600
C550        C  0.20906801  0.60815417  0.59135127     0.75000
O551        O  0.15840028  0.62754274  0.57553459    -0.58400
O552        O  0.21174526  0.62356545  0.57251694    -0.48500
O553        O  0.16624722  0.65931863  0.55343236    -0.54900
C554        C  0.21677176  0.68665216  0.57849735     0.85200
O555        O  0.19699480  0.65818905  0.63735372    -0.56800
O556        O  0.19677765  0.61545570  0.61148317    -0.60100
In557      In  0.84017225  0.64379974  0.59265587     1.36900
C558        C  0.87233033  0.63901780  0.55198602     0.77600
O559        O  0.84767809  0.60678174  0.60820448    -0.60800
O560        O  0.81579824  0.61247075  0.58459041    -0.51700
C561        C  0.84456994  0.65293906  0.64698155     0.70300
O562        O  0.86237919  0.65401098  0.63075323    -0.46600
C563        C  0.81017626  0.67829271  0.57583399     0.75000
O564        O  0.87759089  0.64941895  0.57447199    -0.58400
O565        O  0.80437988  0.65644374  0.57710076    -0.48500
O566        O  0.85079196  0.63222755  0.55021545    -0.54900
C567        C  0.82911054  0.59773659  0.59719987     0.85200
O568        O  0.82496233  0.64828784  0.63491187    -0.56800
O569        O  0.83174790  0.68247520  0.58273173    -0.60100
In570      In  0.83783006  0.37201358  0.58782519     1.36900
C571        C  0.86825404  0.37564744  0.54566063     0.77600
O572        O  0.82992127  0.33416495  0.57493708    -0.60800
O573        O  0.80090598  0.35885893  0.57695932    -0.51700
C574        C  0.84497558  0.36126194  0.64119744     0.70300
O575        O  0.86180411  0.36112130  0.62371002    -0.46600
C576        C  0.83096352  0.41874019  0.59308338     0.75000
O577        O  0.87372298  0.36503119  0.56794055    -0.58400
O578        O  0.81497985  0.40513626  0.58285279    -0.48500
O579        O  0.84693631  0.38328636  0.54456068    -0.54900
C580        C  0.80758989  0.33762376  0.57214773     0.85200
O581        O  0.82459114  0.36605023  0.63099426    -0.56800
O582        O  0.84958427  0.40807421  0.60147504    -0.60100
In583      In  0.86805907  0.67841916  0.90915498     1.36900
C584        C  0.87365679  0.64992678  0.95338704     0.77600
O585        O  0.90542416  0.67010377  0.89691165    -0.60800
O586        O  0.89770506  0.70602286  0.90829586    -0.51700
C587        C  0.85973265  0.66986194  0.85540526     0.70300
O588        O  0.86081473  0.65314353  0.87311947    -0.46600
C589        C  0.83044457  0.70541981  0.92166592     0.75000
O590        O  0.86349721  0.64294271  0.93132401    -0.58400
O591        O  0.85185008  0.71251607  0.92521665    -0.48500
O592        O  0.88015505  0.67159273  0.95307303    -0.54900
C593        C  0.91330573  0.69117461  0.90016633     0.85200
O594        O  0.86185577  0.69058244  0.86567187    -0.56800
O595        O  0.82838718  0.68406921  0.91325666    -0.60100
In596      In  0.13784120  0.68953799  0.90575938     1.36900
C597        C  0.13547030  0.66186717  0.95130707     0.77600
O598        O  0.17691660  0.69736163  0.91464181    -0.60800
O599        O  0.15264355  0.72658606  0.91316064    -0.51700
C600        C  0.14448651  0.68023006  0.85165587     0.70300
O601        O  0.14663091  0.66411003  0.87000937    -0.46600
C602        C  0.09150064  0.69914415  0.90098971     0.75000
O603        O  0.14555173  0.65512502  0.92921443    -0.58400
O604        O  0.10613185  0.71372271  0.91202402    -0.48500
O605        O  0.12703368  0.68280156  0.95018869    -0.54900
C606        C  0.17411803  0.71976278  0.91656158     0.85200
O607        O  0.14019993  0.70075697  0.86135563    -0.56800
O608        O  0.10056484  0.67974908  0.89257323    -0.60100
C609        C  0.93898049  0.69708422  0.89542502    -0.11900
C610        C  0.94906713  0.72010498  0.90016728     0.03600
C611        C  0.97403219  0.72338518  0.89808443    -0.12500
C612        C  0.98912703  0.70416836  0.89124527     0.18400
C613        C  0.97904931  0.68150286  0.88568689    -0.09500
C614        C  0.95424378  0.67826631  0.88732673    -0.02500
H615        H  0.98180042  0.74084068  0.90253123     0.04900
C616        C  0.01545427  0.70710492  0.89289513     0.20400
H617        H  0.94703784  0.66049600  0.88336838     0.10100
C618        C  0.02629340  0.70837230  0.91910497    -0.15800
C619        C  0.05129582  0.70695531  0.92199538     0.03100
C620        C  0.06567761  0.70398155  0.89841125    -0.11200
C621        C  0.05494424  0.70377463  0.87209538    -0.01200
C622        C  0.02995545  0.70573939  0.86917313    -0.06300
H623        H  0.01519309  0.70929026  0.93743447     0.06100
H624        H  0.06599819  0.70174674  0.85385023     0.09500
Br625      Br  0.99850174  0.65376148  0.87830923    -0.06000
Br626      Br  0.93033281  0.74766303  0.91025263    -0.03000
Br627      Br  0.06475931  0.70672094  0.95862424    -0.00100
Br628      Br  0.01627437  0.70596516  0.83264079    -0.04500
C629        C  0.84647072  0.65611758  0.67763659    -0.11900
C630        C  0.82659153  0.65215360  0.69547606     0.03600
C631        C  0.82943958  0.65433627  0.72416712    -0.12500
C632        C  0.85168273  0.66048087  0.73592768     0.18400
C633        C  0.87146266  0.66466562  0.71846860    -0.09500
C634        C  0.86880016  0.66242569  0.68965764    -0.02500
H635        H  0.81411680  0.65119419  0.73748825     0.04900
C636        C  0.85364578  0.66271780  0.76646510     0.20400
H637        H  0.88431916  0.66554200  0.67665109     0.10100
C638        C  0.85840131  0.64232154  0.78263518    -0.15800
C639        C  0.86008747  0.64386211  0.81160554     0.03100
C640        C  0.85677705  0.66625386  0.82496943    -0.11200
C641        C  0.85168993  0.68651409  0.80849660    -0.01200
C642        C  0.85010454  0.68489077  0.77966644    -0.06300
H643        H  0.86102977  0.62513292  0.77261412     0.06100
H644        H  0.84903334  0.70389385  0.81804710     0.09500
Br645      Br  0.90239116  0.67338292  0.73329289    -0.06000
Br646      Br  0.79490884  0.64325317  0.68282693    -0.03000
Br647      Br  0.86791284  0.61488800  0.83116496    -0.00100
Br648      Br  0.84311424  0.71349690  0.75906261    -0.04500
C649        C  0.82838910  0.44505294  0.59483595    -0.11900
C650        C  0.84878162  0.46031297  0.59584687     0.03600
C651        C  0.84570438  0.48507653  0.59787531    -0.12500
C652        C  0.82265186  0.49514659  0.59877762     0.18400
C653        C  0.80227626  0.48015404  0.59721945    -0.09500
C654        C  0.80524182  0.45525204  0.59526139    -0.02500
H655        H  0.86143205  0.49665551  0.59833618     0.04900
C656        C  0.82066004  0.52148139  0.60001586     0.20400
H657        H  0.78942245  0.44383889  0.59435665     0.10100
C658        C  0.81382796  0.53404884  0.57615188    -0.15800
C659        C  0.81524723  0.55909242  0.57523738     0.03100
C660        C  0.82404752  0.57182944  0.59842961    -0.11200
C661        C  0.83013040  0.55922743  0.62258407    -0.01200
C662        C  0.82823168  0.53424112  0.62361369    -0.06300
H663        H  0.80829808  0.52426096  0.55781475     0.06100
H664        H  0.83669249  0.56883598  0.64060344     0.09500
Br665      Br  0.77024286  0.49295441  0.59831390    -0.06000
Br666      Br  0.88136725  0.44899720  0.59278411    -0.03000
Br667      Br  0.80728236  0.57449484  0.54087691    -0.00100
Br668      Br  0.83629999  0.51821061  0.65753224    -0.04500
C669        C  0.17012754  0.66457853  0.67584635    -0.11900
C670        C  0.18793800  0.67132133  0.69555704     0.03600
C671        C  0.18229638  0.67231933  0.72379583    -0.12500
C672        C  0.15913147  0.66675883  0.73333658     0.18400
C673        C  0.14121240  0.66052708  0.71379923    -0.09500
C674        C  0.14674885  0.65953364  0.68545547    -0.02500
H675        H  0.19612067  0.67763012  0.73849104     0.04900
C676        C  0.15397009  0.66865066  0.76357610     0.20400
H677        H  0.13281213  0.65415267  0.67095166     0.10100
C678        C  0.13919593  0.68724712  0.77311450    -0.15800
C679        C  0.13534445  0.69081689  0.80147511     0.03100
C680        C  0.14671901  0.67578442  0.82127352    -0.11200
C681        C  0.16075215  0.65655049  0.81162270    -0.01200
C682        C  0.16447335  0.65297537  0.78314914    -0.06300
H683        H  0.13075061  0.69925358  0.75835152     0.06100
H684        H  0.16930037  0.64452487  0.82627542     0.09500
Br685      Br  0.10921560  0.65208025  0.72502894    -0.06000
Br686      Br  0.22024421  0.68020685  0.68567714    -0.03000
Br687      Br  0.11334894  0.71593057  0.81145360    -0.00100
Br688      Br  0.18375150  0.62621533  0.77186145    -0.04500
C689        C  0.21163962  0.45701544  0.58337901    -0.11900
C690        C  0.23435991  0.46641102  0.59126600     0.03600
C691        C  0.23859922  0.49119754  0.58958729    -0.12500
C692        C  0.22050038  0.50676175  0.58025689     0.18400
C693        C  0.19830894  0.49731415  0.57129715    -0.09500
C694        C  0.19407502  0.47267002  0.57277356    -0.02500
H695        H  0.25552091  0.49849947  0.59709896     0.04900
C696        C  0.22286801  0.53279672  0.58481633     0.20400
H697        H  0.17666264  0.46582269  0.56633510     0.10100
C698        C  0.23067911  0.54793362  0.56349844    -0.15800
C699        C  0.22824988  0.57294816  0.56575500     0.03100
C700        C  0.21749340  0.58293499  0.58964533    -0.11200
C701        C  0.21150352  0.56757962  0.61164761    -0.01200
C702        C  0.21398081  0.54280500  0.60933329    -0.06300
H703        H  0.23761783  0.54022351  0.54459005     0.06100
H704        H  0.20348249  0.57468042  0.63029093     0.09500
Br705      Br  0.17248952  0.51781494  0.55949553    -0.06000
Br706      Br  0.25930977  0.44698044  0.60729825    -0.03000
Br707      Br  0.23901886  0.59195272  0.53505034    -0.00100
Br708      Br  0.20265601  0.52309320  0.63917663    -0.04500
C709        C  0.16253955  0.36153215  0.82084134    -0.11900
C710        C  0.17786375  0.37978165  0.81053862     0.03600
C711        C  0.18072945  0.38269339  0.78186575    -0.12500
C712        C  0.16882780  0.36756195  0.76300605     0.18400
C713        C  0.15409590  0.34903050  0.77315255    -0.09500
C714        C  0.15097802  0.34622231  0.80168630    -0.02500
H715        H  0.19248861  0.39672668  0.77421619     0.04900
C716        C  0.17238279  0.37093352  0.73283295     0.20400
H717        H  0.13926669  0.33196839  0.80887386     0.10100
C718        C  0.19014933  0.35759335  0.71931010    -0.15800
C719        C  0.19382593  0.36000967  0.69079105     0.03100
C720        C  0.17965122  0.37625500  0.67516137    -0.11200
C721        C  0.16154313  0.38928852  0.68873380    -0.01200
C722        C  0.15788720  0.38675210  0.71730168    -0.06300
H723        H  0.20104504  0.34500623  0.73099094     0.06100
H724        H  0.15037572  0.40171041  0.67716605     0.09500
Br725      Br  0.13788731  0.32712053  0.74868366    -0.06000
Br726      Br  0.19633259  0.40056986  0.83418696    -0.03000
Br727      Br  0.21739919  0.33934664  0.67427314    -0.00100
Br728      Br  0.13274671  0.40497448  0.73436045    -0.04500
C729        C  0.84832373  0.35654964  0.67126904    -0.11900
C730        C  0.87061977  0.35979998  0.68516849     0.03600
C731        C  0.87211395  0.35638359  0.71389172    -0.12500
C732        C  0.85181047  0.34961130  0.72919876     0.18400
C733        C  0.82975155  0.34599486  0.71540790    -0.09500
C734        C  0.82811073  0.34960351  0.68682224    -0.02500
H735        H  0.88918032  0.35918712  0.72440593     0.04900
C736        C  0.85391782  0.34639869  0.75953939     0.20400
H737        H  0.81085782  0.34689174  0.67669770     0.10100
C738        C  0.84878920  0.36567320  0.77718984    -0.15800
C739        C  0.85091174  0.36331753  0.80600524     0.03100
C740        C  0.85822506  0.34114581  0.81769197    -0.11200
C741        C  0.86296075  0.32180745  0.79972064    -0.01200
C742        C  0.86096661  0.32432151  0.77100818    -0.06300
H743        H  0.84329613  0.38273347  0.76844690     0.06100
H744        H  0.86862524  0.30461837  0.80795177     0.09500
Br745      Br  0.80145495  0.33590240  0.73484103    -0.06000
Br746      Br  0.89940655  0.37004686  0.66671448    -0.03000
Br747      Br  0.84405740  0.39133333  0.82768752    -0.00100
Br748      Br  0.86829968  0.29720995  0.74810431    -0.04500
C749        C  0.94723705  0.32788386  0.89150354    -0.11900
C750        C  0.95922698  0.34065980  0.87043012     0.03600
C751        C  0.98434596  0.34154994  0.87032612    -0.12500
C752        C  0.99776260  0.33016218  0.89109215     0.18400
C753        C  0.98587904  0.31734648  0.91205899    -0.09500
C754        C  0.96076939  0.31593522  0.91184966    -0.02500
H755        H  0.99348976  0.35157837  0.85428166     0.04900
C756        C  0.02400009  0.33358628  0.89169427     0.20400
H757        H  0.95176295  0.30649056  0.92844896     0.10100
C758        C  0.03309299  0.35619820  0.89887579    -0.15800
C759        C  0.05786116  0.36039675  0.89994404     0.03100
C760        C  0.07402107  0.34143063  0.89411553    -0.11200
C761        C  0.06472872  0.31884615  0.88661866    -0.01200
C762        C  0.03991425  0.31492640  0.88498486    -0.06300
H763        H  0.02078658  0.37061631  0.90393062     0.06100
H764        H  0.07680510  0.30420465  0.88174998     0.09500
Br765      Br  0.00301879  0.30328898  0.94257687    -0.06000
Br766      Br  0.94251102  0.35706054  0.84111826    -0.03000
Br767      Br  0.06786973  0.39209287  0.91093979    -0.00100
Br768      Br  0.02856373  0.28416470  0.87261954    -0.04500
C769        C  0.12710888  0.56959768  0.49713750    -0.11900
C770        C  0.14943521  0.55713754  0.49495591     0.03600
C771        C  0.14985077  0.53207257  0.49317632    -0.12500
C772        C  0.12854798  0.51873459  0.49396262     0.18400
C773        C  0.10638498  0.53068182  0.49541517    -0.09500
C774        C  0.10573235  0.55574823  0.49679350    -0.02500
H775        H  0.16699203  0.52284481  0.49199661     0.04900
C776        C  0.12981947  0.49232074  0.49512811     0.20400
H777        H  0.08820540  0.56382041  0.49814183     0.10100
C778        C  0.12929144  0.48096978  0.52099352    -0.15800
C779        C  0.12945810  0.45594897  0.52292304     0.03100
C780        C  0.13005422  0.44203512  0.49870831    -0.11200
C781        C  0.13102712  0.45330651  0.47287111    -0.01200
C782        C  0.13088282  0.47834328  0.47095797    -0.06300
H783        H  0.12817933  0.49160259  0.53967685     0.06100
H784        H  0.13116566  0.44259694  0.45416457     0.09500
Br785      Br  0.07647736  0.51331570  0.49604674    -0.06000
Br786      Br  0.18042167  0.57273145  0.49520836    -0.03000
Br787      Br  0.12803178  0.44148715  0.55886464    -0.00100
Br788      Br  0.13068335  0.49262034  0.43503820    -0.04500
C789        C  0.95491124  0.63990555  0.50817698    -0.11900
C790        C  0.96345827  0.66298627  0.50019470     0.03600
C791        C  0.98825318  0.66826011  0.50137546    -0.12500
C792        C  0.00485817  0.65143874  0.51155754     0.18400
C793        C  0.99614954  0.62963168  0.52232377    -0.09500
C794        C  0.97160375  0.62439609  0.52115180    -0.02500
H795        H  0.99464663  0.68556105  0.49421120     0.04900
C796        C  0.03121059  0.65588149  0.50975158     0.20400
H797        H  0.96583065  0.60789044  0.53079437     0.10100
C798        C  0.04521836  0.65597489  0.53406540    -0.15800
C799        C  0.07009189  0.65189536  0.53299293     0.03100
C800        C  0.08130147  0.64848401  0.50729033    -0.11200
C801        C  0.06787967  0.65174481  0.48295748    -0.01200
C802        C  0.04296033  0.65533265  0.48398011    -0.06300
H803        H  0.03644922  0.65669816  0.55400272     0.06100
H804        H  0.07635571  0.64890130  0.46309645     0.09500
Br805      Br  0.01697164  0.60543353  0.53769193    -0.06000
Br806      Br  0.94267322  0.68885333  0.48922257    -0.03000
Br807      Br  0.08732194  0.64729517  0.56707171    -0.00100
Br808      Br  0.02553944  0.65563292  0.44960893    -0.04500
C809        C  0.95134584  0.37276835  0.49965494    -0.11900
C810        C  0.96716499  0.38179635  0.47906319     0.03600
C811        C  0.99182770  0.37692881  0.48044697    -0.12500
C812        C  0.00149678  0.36261378  0.50150416     0.18400
C813        C  0.98589911  0.35212475  0.52082899    -0.09500
C814        C  0.96117546  0.35710581  0.51979161    -0.02500
H815        H  0.00372314  0.38499557  0.46535233     0.04900
C816        C  0.02805139  0.36118781  0.50432250     0.20400
H817        H  0.95012924  0.34855399  0.53512804     0.10100
C818        C  0.03914532  0.37308344  0.52643601    -0.15800
C819        C  0.06404159  0.37690677  0.52695834     0.03100
C820        C  0.07863895  0.36896455  0.50461976    -0.11200
C821        C  0.06746959  0.35489025  0.48388067    -0.01200
C822        C  0.04247748  0.35122120  0.48351363    -0.06300
H823        H  0.02816096  0.38072105  0.54265886     0.06100
H824        H  0.07758688  0.34737475  0.46706836     0.09500
Br825      Br  0.99760292  0.33065633  0.54885595    -0.06000
Br826      Br  0.95682209  0.40158504  0.44860348    -0.03000
Br827      Br  0.07608753  0.39520676  0.55786559    -0.00100
Br828      Br  0.02859018  0.33314514  0.45363641    -0.04500
C829        C  0.89445794  0.57131699  0.50474118    -0.11900
C830        C  0.88611742  0.55921521  0.52839582     0.03600
C831        C  0.88321377  0.53416720  0.52805456    -0.12500
C832        C  0.88935422  0.52061670  0.50460273     0.18400
C833        C  0.89690797  0.53293187  0.48057198    -0.09500
C834        C  0.89932205  0.55800388  0.48082684    -0.02500
H835        H  0.87721515  0.52510606  0.54661996     0.04900
C836        C  0.88951808  0.49379345  0.50605030     0.20400
H837        H  0.90599515  0.56709085  0.46258519     0.10100
C838        C  0.87552998  0.48034018  0.48735030    -0.15800
C839        C  0.87777704  0.45526528  0.48558202     0.03100
C840        C  0.89384246  0.44286587  0.50327225    -0.11200
C841        C  0.90670682  0.45630734  0.52314071    -0.01200
C842        C  0.90479128  0.48138494  0.52458556    -0.06300
H843        H  0.86355558  0.48954703  0.47311894     0.06100
H844        H  0.91892406  0.44729305  0.53724838     0.09500
Br845      Br  0.90624739  0.51640682  0.44753066    -0.06000
Br846      Br  0.88109288  0.57575804  0.56251143    -0.03000
Br847      Br  0.86041244  0.43978166  0.45643772    -0.00100
Br848      Br  0.92496112  0.49777139  0.55092910    -0.04500
C849        C  0.94563622  0.32831116  0.09733064    -0.11900
C850        C  0.96030590  0.34886682  0.09320307     0.03600
C851        C  0.98526891  0.34659637  0.09367435    -0.12500
C852        C  0.99612142  0.32436756  0.09847975     0.18400
C853        C  0.98176591  0.30396094  0.10308637    -0.09500
C854        C  0.95665849  0.30599428  0.10222001    -0.02500
H855        H  0.99638950  0.36231864  0.09014364     0.04900
C856        C  0.02254495  0.32354007  0.09946651     0.20400
H857        H  0.94574079  0.29011769  0.10556646     0.10100
C858        C  0.03427771  0.33351313  0.12244791    -0.15800
C859        C  0.05921063  0.33664076  0.12262305     0.03100
C860        C  0.07277029  0.32963438  0.09942586    -0.11200
C861        C  0.06107109  0.31874399  0.07684360    -0.01200
C862        C  0.03604681  0.31589791  0.07659640    -0.06300
H863        H  0.02386438  0.33950655  0.14002385     0.06100
H864        H  0.07128069  0.31342531  0.05883140     0.09500
Br865      Br  0.99570609  0.27328247  0.11126804    -0.06000
Br866      Br  0.94808535  0.38044119  0.08503093    -0.03000
Br867      Br  0.07361625  0.35019948  0.15528848    -0.00100
Br868      Br  0.02094684  0.30311188  0.04396889    -0.04500
C869        C  0.17231843  0.37454842  0.32238782    -0.11900
C870        C  0.15199296  0.36289386  0.31074136     0.03600
C871        C  0.14962229  0.36110980  0.28187141    -0.12500
C872        C  0.16701735  0.37099212  0.26417176     0.18400
C873        C  0.18673999  0.38337198  0.27571309    -0.09500
C874        C  0.18931872  0.38491910  0.30444465    -0.02500
H875        H  0.13432435  0.35159021  0.27314710     0.04900
C876        C  0.16497350  0.36716691  0.23385329     0.20400
H877        H  0.20487790  0.39426994  0.31278721     0.10100
C878        C  0.15799283  0.38615751  0.21650091    -0.15800
C879        C  0.15546670  0.38278827  0.18784678     0.03100
C880        C  0.15995866  0.36000681  0.17607008    -0.11200
C881        C  0.16725957  0.34115456  0.19355481    -0.01200
C882        C  0.16990504  0.34460632  0.22209554    -0.06300
H883        H  0.15411421  0.40358014  0.22536990     0.06100
H884        H  0.17089144  0.32356290  0.18498515     0.09500
Br885      Br  0.21113206  0.39769158  0.25306532    -0.06000
Br886      Br  0.12752696  0.34797777  0.33279680    -0.03000
Br887      Br  0.14403692  0.40945444  0.16637526    -0.00100
Br888      Br  0.18067407  0.31809073  0.24427546    -0.04500
C889        C  0.19768038  0.45599846  0.40574607    -0.11900
C890        C  0.19810994  0.46913970  0.43060987     0.03600
C891        C  0.19866640  0.49424896  0.42984315    -0.12500
C892        C  0.19917381  0.50658752  0.40454748     0.18400
C893        C  0.20022268  0.49338310  0.37970971    -0.09500
C894        C  0.19894298  0.46827521  0.38045477    -0.02500
H895        H  0.19796846  0.50422175  0.44905812     0.04900
C896        C  0.19765984  0.53313407  0.40473368     0.20400
H897        H  0.19902427  0.45827950  0.36123496     0.10100
C898        C  0.21602224  0.54658587  0.41750929    -0.15800
C899        C  0.21444429  0.57165106  0.41960852     0.03100
C900        C  0.19412775  0.58368257  0.40861962    -0.11200
C901        C  0.17575891  0.57003760  0.39605195    -0.01200
C902        C  0.17726957  0.54511007  0.39418387    -0.06300
H903        H  0.23151393  0.53746704  0.42626023     0.06100
H904        H  0.15982924  0.57875944  0.38782348     0.09500
Br905      Br  0.20396874  0.50878740  0.34445308    -0.06000
Br906      Br  0.19600394  0.45375428  0.46602030    -0.03000
Br907      Br  0.23989989  0.58786882  0.43916262    -0.00100
Br908      Br  0.15024401  0.52844669  0.37826173    -0.04500
C909        C  0.17099003  0.66669725  0.33082161    -0.11900
C910        C  0.19046366  0.66997301  0.31237559     0.03600
C911        C  0.18638462  0.67013077  0.28376675    -0.12500
C912        C  0.16317334  0.66714017  0.27280777     0.18400
C913        C  0.14368166  0.66404429  0.29100476    -0.09500
C914        C  0.14765761  0.66393292  0.31971093    -0.02500
H915        H  0.20140516  0.67299666  0.26992596     0.04900
C916        C  0.15959921  0.66909383  0.24244686     0.20400
H917        H  0.13248731  0.66120818  0.33336277     0.10100
C918        C  0.16022665  0.64850256  0.22571760    -0.15800
C919        C  0.15744401  0.65015211  0.19683352     0.03100
C920        C  0.15341040  0.67278671  0.18427283    -0.11200
C921        C  0.15331750  0.69332977  0.20129399    -0.01200
C922        C  0.15664143  0.69165226  0.22991531    -0.06300
H923        H  0.16303857  0.63108672  0.23517297     0.06100
H924        H  0.15073087  0.71096655  0.19231932     0.09500
Br925      Br  0.11138848  0.65994757  0.27747525    -0.06000
Br926      Br  0.22296116  0.67564835  0.32460896    -0.03000
Br927      Br  0.15923279  0.62083775  0.17611508    -0.00100
Br928      Br  0.15736215  0.72073484  0.25120074    -0.04500
C929        C  0.93671770  0.69170693  0.11178404    -0.11900
C930        C  0.94907806  0.68238750  0.13493123     0.03600
C931        C  0.97410819  0.68468327  0.13676446    -0.12500
C932        C  0.98716297  0.69593740  0.11565602     0.18400
C933        C  0.97472030  0.70593248  0.09293409    -0.09500
C934        C  0.94960132  0.70414472  0.09142202    -0.02500
H935        H  0.98355287  0.67684508  0.15422188     0.04900
C936        C  0.01369229  0.69399855  0.11584954     0.20400
H937        H  0.94029333  0.71104915  0.07335268     0.10100
C938        C  0.02391066  0.67124377  0.11230073    -0.15800
C939        C  0.04883093  0.66834589  0.11040128     0.03100
C940        C  0.06412149  0.68869330  0.11210451    -0.11200
C941        C  0.05379049  0.71138830  0.11662001    -0.01200
C942        C  0.02883061  0.71413982  0.11868761    -0.06300
H943        H  0.01231065  0.65565218  0.11034029     0.06100
H944        H  0.06516384  0.72714752  0.11847567     0.09500
Br945      Br  0.99133314  0.71963335  0.06197654    -0.06000
Br946      Br  0.93267315  0.66622237  0.16448148    -0.03000
Br947      Br  0.06011754  0.63622987  0.10391059    -0.00100
Br948      Br  0.01634599  0.74561410  0.12581990    -0.04500
C949        C  0.85182798  0.66117630  0.18039061    -0.11900
C950        C  0.85730310  0.63911809  0.19359837     0.03600
C951        C  0.85568672  0.63713955  0.22252565    -0.12500
C952        C  0.84880874  0.65678417  0.23886321     0.18400
C953        C  0.84293233  0.67856356  0.22575929    -0.09500
C954        C  0.84443774  0.68059380  0.19694574    -0.02500
H955        H  0.86032181  0.62029842  0.23241671     0.04900
C956        C  0.84833128  0.65448876  0.26953115     0.20400
H957        H  0.84005269  0.69767369  0.18747193     0.10100
C958        C  0.86617865  0.66585903  0.28559147    -0.15800
C959        C  0.86603566  0.66444503  0.31460924     0.03100
C960        C  0.84772093  0.65131899  0.32819086    -0.11200
C961        C  0.82986095  0.64003749  0.31188983    -0.01200
C962        C  0.83005773  0.64151592  0.28297642    -0.06300
H963        H  0.88023080  0.67606245  0.27545008     0.06100
H964        H  0.81558050  0.62986923  0.32164763     0.09500
Br965      Br  0.83262554  0.70605064  0.24643840    -0.06000
Br966      Br  0.86860308  0.61146372  0.17390879    -0.03000
Br967      Br  0.89080140  0.68166876  0.33415967    -0.00100
Br968      Br  0.80450263  0.62617370  0.26272715    -0.04500
C969        C  0.85177514  0.35962561  0.31946055    -0.11900
C970        C  0.83159612  0.35616784  0.30175749     0.03600
C971        C  0.83466458  0.35520882  0.27306006    -0.12500
C972        C  0.85748983  0.35757892  0.26118036     0.18400
C973        C  0.87760614  0.36125528  0.27856408    -0.09500
C974        C  0.87467495  0.36215956  0.30739463    -0.02500
H975        H  0.81912637  0.35211180  0.25985645     0.04900
C976        C  0.85991481  0.35420887  0.23083409     0.20400
H977        H  0.89036145  0.36512056  0.32038728     0.10100
C978        C  0.86204017  0.37412322  0.21320121    -0.15800
C979        C  0.86324961  0.37118791  0.18434033     0.03100
C980        C  0.86238516  0.34785459  0.17264027    -0.11200
C981        C  0.86039388  0.32805277  0.19057623    -0.01200
C982        C  0.85899874  0.33107306  0.21924210    -0.06300
H983        H  0.86266733  0.39203027  0.22193511     0.06100
H984        H  0.85978703  0.30999172  0.18228407     0.09500
Br985      Br  0.90941067  0.36465287  0.26377800    -0.06000
Br986      Br  0.79932124  0.35146380  0.31494209    -0.03000
Br987      Br  0.86692810  0.39972998  0.16246836    -0.00100
Br988      Br  0.85592468  0.30297866  0.24194191    -0.04500
C989        C  0.83048957  0.56888529  0.40198382    -0.11900
C990        C  0.82737450  0.55313375  0.42438174     0.03600
C991        C  0.82560229  0.52849939  0.41953586    -0.12500
C992        C  0.82674954  0.51940536  0.39255229     0.18400
C993        C  0.82877136  0.53524713  0.37003674    -0.09500
C994        C  0.83098023  0.55987456  0.37492057    -0.02500
H995        H  0.82423773  0.51630467  0.43692854     0.04900
C996        C  0.82794223  0.49326944  0.38889621     0.20400
H997        H  0.83321772  0.57202107  0.35760735     0.10100
C998        C  0.80745208  0.47931233  0.39407300    -0.15800
C999        C  0.80889743  0.45426518  0.39490944     0.03100
C1000       C  0.83139880  0.44293958  0.39083073    -0.11200
C1001       C  0.85156976  0.45710353  0.38424216    -0.01200
C1002       C  0.85003857  0.48202948  0.38344175    -0.06300
H1003       H  0.79040976  0.48800981  0.39825032     0.06100
H1004       H  0.86898166  0.44887977  0.38088974     0.09500
Br1005     Br  0.82877985  0.52395110  0.33254694    -0.06000
Br1006     Br  0.82764232  0.56420651  0.46194365    -0.03000
Br1007     Br  0.77955650  0.43712368  0.40232835    -0.00100
Br1008     Br  0.87908662  0.49992730  0.37701967    -0.04500
C1009       C  0.13255090  0.45361295  0.99944883    -0.11900
C1010       C  0.15541012  0.46411060  0.00530700     0.03600
C1011       C  0.15806971  0.48919456  0.00579649    -0.12500
C1012       C  0.13878909  0.50423422  0.99882243     0.18400
C1013       C  0.11725340  0.49390958  0.98905993    -0.09500
C1014       C  0.11426010  0.46903174  0.98950828    -0.02500
H1015       H  0.17522696  0.49699803  0.01175914     0.04900
C1016       C  0.14080264  0.53057164  0.00243375     0.20400
H1017       H  0.09765049  0.46205082  0.98103705     0.10100
C1018       C  0.15681349  0.54409357  0.98633941    -0.15800
C1019       C  0.15659412  0.56933809  0.98720614     0.03100
C1020       C  0.13888558  0.58135140  0.00319214    -0.11200
C1021       C  0.12572523  0.56743341  0.02227980    -0.01200
C1022       C  0.12636688  0.54245143  0.02183314    -0.06300
H1023       H  0.16951441  0.53497383  0.97306612     0.06100
H1024       H  0.11378031  0.57606808  0.03684727     0.09500
Br1025     Br  0.09162605  0.51309771  0.97391449    -0.06000
Br1026     Br  0.18419303  0.44563213  0.01110514    -0.03000
Br1027     Br  0.18358209  0.58511465  0.97032549    -0.00100
Br1028     Br  0.10678379  0.52534315  0.04790508    -0.04500
C1029       C  0.94519202  0.37855077  0.99176171    -0.11900
C1030       C  0.95587572  0.35979829  0.00741907     0.03600
C1031       C  0.98110354  0.35779541  0.00918923    -0.12500
C1032       C  0.99617774  0.37367767  0.99493413     0.18400
C1033       C  0.98572238  0.39085704  0.97731440    -0.09500
C1034       C  0.96062874  0.39313360  0.97579748    -0.02500
H1035       H  0.98899647  0.34433799  0.02259148     0.04900
C1036       C  0.02250013  0.37424400  0.00070732     0.20400
H1037       H  0.95319798  0.40699506  0.96258324     0.10100
C1038       C  0.03852870  0.36101660  0.98442679    -0.15800
C1039       C  0.06354158  0.36499995  0.98620665     0.03100
C1040       C  0.07274652  0.38365695  0.00319445    -0.11200
C1041       C  0.05665469  0.39493832  0.02149672    -0.01200
C1042       C  0.03190303  0.39009235  0.02064320    -0.06300
H1043       H  0.03152789  0.34805870  0.96972302     0.06100
H1044       H  0.06325546  0.40825968  0.03600865     0.09500
Br1045     Br  0.00520118  0.41261363  0.95619101    -0.06000
Br1046     Br  0.93785870  0.33681822  0.02801186    -0.03000
Br1047     Br  0.08349693  0.34441263  0.96472978    -0.00100
Br1048     Br  0.01129539  0.40636658  0.04621688    -0.04500
C1049       C  0.94142619  0.63180246  0.00252253    -0.11900
C1050       C  0.95277117  0.63930548  0.97802482     0.03600
C1051       C  0.97766889  0.64358373  0.97766872    -0.12500
C1052       C  0.99201450  0.63928958  0.00116432     0.18400
C1053       C  0.98064918  0.63183982  0.02580040    -0.09500
C1054       C  0.95556938  0.62838563  0.02635414    -0.02500
H1055       H  0.98609920  0.64898726  0.95848435     0.04900
C1056       C  0.01880404  0.64038894  0.99878119     0.20400
H1057       H  0.94719872  0.62193860  0.04513830     0.10100
C1058       C  0.03225664  0.65659567  0.01497322    -0.15800
C1059       C  0.05762316  0.65635098  0.01487022     0.03100
C1060       C  0.07010512  0.63968017  0.99818038    -0.11200
C1061       C  0.05639466  0.62489729  0.98040119    -0.01200
C1062       C  0.03121914  0.62478998  0.98092429    -0.06300
H1063       H  0.02295498  0.66900982  0.02844056     0.06100
H1064       H  0.06535063  0.61236962  0.96677549     0.09500
Br1065     Br  0.99874137  0.62378595  0.05840692    -0.06000
Br1066     Br  0.93568116  0.64087491  0.94368996    -0.03000
Br1067     Br  0.07357547  0.67821532  0.03928365    -0.00100
Br1068     Br  0.01491796  0.60114798  0.95871612    -0.04500
C1069       C  0.87923029  0.44036678  0.99611686    -0.11900
C1070       C  0.88905723  0.45419338  0.01822701     0.03600
C1071       C  0.88635366  0.47909945  0.01855473    -0.12500
C1072       C  0.87319786  0.49096198  0.99795626     0.18400
C1073       C  0.86211133  0.47738408  0.97691894    -0.09500
C1074       C  0.86512884  0.45244291  0.97610982    -0.02500
H1075       H  0.89499529  0.48938997  0.03485116     0.04900
C1076       C  0.87269577  0.51756226  0.99797647     0.20400
H1077       H  0.85630843  0.44296488  0.95950915     0.10100
C1078       C  0.88308529  0.52999252  0.97588643    -0.15800
C1079       C  0.88529677  0.55500395  0.97624062     0.03100
C1080       C  0.87715065  0.56843312  0.99939491    -0.11200
C1081       C  0.86604087  0.55562931  0.02113810    -0.01200
C1082       C  0.86389248  0.53062643  0.02060485    -0.06300
H1083       H  0.89023077  0.52005440  0.95851531     0.06100
H1084       H  0.85942315  0.56440623  0.03933727     0.09500
Br1085     Br  0.84237110  0.49206683  0.94894615    -0.06000
Br1086     Br  0.90701977  0.44071235  0.04869007    -0.03000
Br1087     Br  0.90074937  0.56910885  0.94458952    -0.00100
Br1088     Br  0.84885775  0.51519544  0.05159644    -0.04500
C1089       C  0.72834443  0.19377057  0.92383773    -0.11900
C1090       C  0.74972988  0.18886711  0.93880362     0.03600
C1091       C  0.76833973  0.20586816  0.93945759    -0.12500
C1092       C  0.76603416  0.22774337  0.92540113     0.18400
C1093       C  0.74463384  0.23279564  0.91081776    -0.09500
C1094       C  0.72590758  0.21601210  0.91045232    -0.02500
H1095       H  0.78478815  0.20193017  0.95073608     0.04900
C1096       C  0.78652844  0.24462319  0.92490227     0.20400
H1097       H  0.70983015  0.21991847  0.89847644     0.10100
C1098       C  0.80624919  0.23945384  0.90798712    -0.15800
C1099       C  0.82498598  0.25602910  0.90484347     0.03100
C1100       C  0.82410870  0.27823265  0.91892279    -0.11200
C1101       C  0.80466179  0.28302779  0.93651838    -0.01200
C1102       C  0.78602862  0.26632970  0.93974005    -0.06300
H1103       H  0.80661894  0.22280380  0.89640104     0.06100
H1104       H  0.80384101  0.29991435  0.94759181     0.09500
Br1105     Br  0.74085190  0.26160686  0.88944031    -0.06000
Br1106     Br  0.75450171  0.15965676  0.95919800    -0.03000
Br1107     Br  0.84990328  0.24819442  0.87894883    -0.00100
Br1108     Br  0.76010283  0.27389305  0.96431406    -0.04500
C1109       C  0.72298689  0.81471942  0.92307681    -0.11900
C1110       C  0.71477068  0.79116260  0.92887497     0.03600
C1111       C  0.73141524  0.77241465  0.93164227    -0.12500
C1112       C  0.75617804  0.77664053  0.92873439     0.18400
C1113       C  0.76435242  0.80003142  0.92293678    -0.09500
C1114       C  0.74787070  0.81879521  0.92054983    -0.02500
H1115       H  0.72501293  0.75438212  0.93580732     0.04900
C1116       C  0.77319037  0.75629299  0.92960642     0.20400
H1117       H  0.75459427  0.83656966  0.91567796     0.10100
C1118       C  0.77304884  0.73986190  0.90769250    -0.15800
C1119       C  0.79102928  0.72245959  0.90548475     0.03100
C1120       C  0.80959113  0.72136252  0.92549948    -0.11200
C1121       C  0.80911447  0.73714606  0.94812731    -0.01200
C1122       C  0.79083800  0.75430547  0.95049903    -0.06300
H1123       H  0.75954779  0.74133767  0.89151338     0.06100
H1124       H  0.82312775  0.73631275  0.96378638     0.09500
Br1125     Br  0.79768098  0.80702310  0.91598007    -0.06000
Br1126     Br  0.68135489  0.78314381  0.93351640    -0.03000
Br1127     Br  0.79079239  0.70261290  0.87299732    -0.00100
Br1128     Br  0.79067590  0.77492638  0.98224788    -0.04500
C1129       C  0.68743899  0.07028344  0.89195291    -0.11900
C1130       C  0.66768628  0.05434696  0.88890388     0.03600
C1131       C  0.67163037  0.02965118  0.88922017    -0.12500
C1132       C  0.69482698  0.02028683  0.89256216     0.18400
C1133       C  0.71465820  0.03594800  0.89418371    -0.09500
C1134       C  0.71085102  0.06075760  0.89404176    -0.02500
H1135       H  0.65635882  0.01757112  0.88752457     0.04900
C1136       C  0.69735850  0.99404103  0.89453639     0.20400
H1137       H  0.72626457  0.07261703  0.89600615     0.10100
C1138       C  0.69149298  0.98017270  0.87130398    -0.15800
C1139       C  0.68934127  0.95529937  0.87337917     0.03100
C1140       C  0.69327227  0.94394762  0.89900685    -0.11200
C1141       C  0.70032169  0.95763187  0.92200249    -0.01200
C1142       C  0.70209562  0.98264285  0.92001876    -0.06300
H1143       H  0.68770499  0.98885359  0.85170743     0.06100
H1144       H  0.70312360  0.94901036  0.94184441     0.09500
Br1145     Br  0.74710155  0.02426060  0.89629209    -0.06000
Br1146     Br  0.63462897  0.06437939  0.88607895    -0.03000
Br1147     Br  0.68089565  0.93762552  0.84061451    -0.00100
Br1148     Br  0.70884864  0.00053688  0.95307891    -0.04500
C1149       C  0.79248254  0.69708340  0.56794522    -0.11900
C1150       C  0.79591589  0.72167253  0.57416904     0.03600
C1151       C  0.77674570  0.73773726  0.57101603    -0.12500
C1152       C  0.75431631  0.73003942  0.56084767     0.18400
C1153       C  0.75180609  0.70626176  0.55141443    -0.09500
C1154       C  0.77057749  0.68989924  0.55560023    -0.02500
H1155       H  0.77910822  0.75623397  0.57746245     0.04900
C1156       C  0.73365735  0.74681046  0.56215634     0.20400
H1157       H  0.76786495  0.67136909  0.54948724     0.10100
C1158       C  0.73483328  0.76873391  0.54789305    -0.15800
C1159       C  0.71731866  0.78646874  0.55180616     0.03100
C1160       C  0.69806534  0.78230624  0.57011859    -0.11200
C1161       C  0.69640530  0.76001371  0.58352514    -0.01200
C1162       C  0.71414941  0.74250311  0.58009613    -0.06300
H1163       H  0.74978187  0.77227582  0.53415584     0.06100
H1164       H  0.68185127  0.75662664  0.59786151     0.09500
Br1165     Br  0.72329419  0.69549911  0.53242589    -0.06000
Br1166     Br  0.82567046  0.73464801  0.58810166    -0.03000
Br1167     Br  0.72040146  0.81576216  0.53126166    -0.00100
Br1168     Br  0.71204089  0.71415550  0.60262851    -0.04500
C1169       C  0.66076643  0.84793118  0.67422328    -0.11900
C1170       C  0.65480386  0.87008912  0.68675483     0.03600
C1171       C  0.65712769  0.87289758  0.71549814    -0.12500
C1172       C  0.66525842  0.85398494  0.73226577     0.18400
C1173       C  0.67129610  0.83196687  0.71986132    -0.09500
C1174       C  0.66893224  0.82906813  0.69120189    -0.02500
H1175       H  0.65220701  0.88983421  0.72490946     0.04900
C1176       C  0.66687037  0.85732993  0.76268974     0.20400
H1177       H  0.67355280  0.81190513  0.68214005     0.10100
C1178       C  0.64924215  0.84708692  0.77973198    -0.15800
C1179       C  0.65029759  0.84965327  0.80858478     0.03100
C1180       C  0.66966982  0.86230160  0.82102011    -0.11200
C1181       C  0.68721167  0.87265466  0.80372094    -0.01200
C1182       C  0.68575925  0.87053142  0.77488675    -0.06300
H1183       H  0.63451900  0.83705560  0.77048024     0.06100
H1184       H  0.70207080  0.88272325  0.81261883     0.09500
Br1185     Br  0.68324293  0.80547755  0.74124326    -0.06000
Br1186     Br  0.64176359  0.89665387  0.66633557    -0.03000
Br1187     Br  0.62491962  0.83497652  0.82948179    -0.00100
Br1188     Br  0.71003887  0.88582501  0.75290713    -0.04500
C1189       C  0.31852764  0.80130039  0.56836068    -0.11900
C1190       C  0.31953341  0.78347659  0.54768294     0.03600
C1191       C  0.30055663  0.76701855  0.54484259    -0.12500
C1192       C  0.28062618  0.76770762  0.56263946     0.18400
C1193       C  0.27922046  0.78627044  0.58244515    -0.09500
C1194       C  0.29780714  0.80313619  0.58464358    -0.02500
H1195       H  0.30187094  0.75288797  0.52952331     0.04900
C1196       C  0.26395609  0.74683085  0.56334043     0.20400
H1197       H  0.29690660  0.81661672  0.60075932     0.10100
C1198       C  0.27364178  0.72420404  0.56941753    -0.15800
C1199       C  0.25884946  0.70413954  0.57305827     0.03100
C1200       C  0.23347781  0.70663203  0.57151078    -0.11200
C1201       C  0.22388210  0.72909042  0.56391053    -0.01200
C1202       C  0.23890046  0.74894744  0.55924773    -0.06300
H1203       H  0.29295361  0.72221711  0.57193003     0.06100
H1204       H  0.20459074  0.73127171  0.56155614     0.09500
Br1205     Br  0.25433098  0.78767386  0.60980129    -0.06000
Br1206     Br  0.34632550  0.78063811  0.52295705    -0.03000
Br1207     Br  0.27504564  0.67430942  0.58044149    -0.00100
Br1208     Br  0.22448927  0.77817651  0.54625385    -0.04500
C1209       C  0.57445823  0.82514405  0.59779940    -0.11900
C1210       C  0.55903501  0.84469415  0.59216689     0.03600
C1211       C  0.53420339  0.84173225  0.59430690    -0.12500
C1212       C  0.52436168  0.81968068  0.60231978     0.18400
C1213       C  0.53956567  0.80014285  0.60799325    -0.09500
C1214       C  0.56451033  0.80290166  0.60543169    -0.02500
H1215       H  0.52242873  0.85672668  0.58965825     0.04900
C1216       C  0.49804702  0.81779857  0.60407853     0.20400
H1217       H  0.57616673  0.78780360  0.60995561     0.10100
C1218       C  0.48511460  0.81000426  0.58081310    -0.15800
C1219       C  0.46009045  0.81244521  0.57960749     0.03100
C1220       C  0.44777221  0.82273534  0.60208922    -0.11200
C1221       C  0.46072222  0.82970962  0.62576750    -0.01200
C1222       C  0.48573446  0.82726462  0.62689769    -0.06300
H1223       H  0.49466735  0.80330100  0.56293388     0.06100
H1224       H  0.45143196  0.83777202  0.64307494     0.09500
Br1225     Br  0.52699280  0.76982403  0.62002097    -0.06000
Br1226     Br  0.57042495  0.87559696  0.58025033    -0.03000
Br1227     Br  0.44425726  0.80454302  0.54539467    -0.00100
Br1228     Br  0.50262172  0.83828938  0.65923428    -0.04500
C1229       C  0.79031275  0.31822249  0.56553651    -0.11900
C1230       C  0.79719303  0.29678931  0.55209197     0.03600
C1231       C  0.78072025  0.27784509  0.54963807    -0.12500
C1232       C  0.75731265  0.28003289  0.55996157     0.18400
C1233       C  0.75010449  0.30174468  0.57230875    -0.09500
C1234       C  0.76651373  0.32062819  0.57479667    -0.02500
H1235       H  0.78623459  0.26124466  0.53987195     0.04900
C1236       C  0.74114057  0.25904739  0.55970409     0.20400
H1237       H  0.76088811  0.33690160  0.58517810     0.10100
C1238       C  0.74612100  0.23979954  0.57752397    -0.15800
C1239       C  0.72913255  0.22159030  0.58163922     0.03100
C1240       C  0.70654922  0.22299299  0.56814770    -0.11200
C1241       C  0.70251753  0.24122825  0.54861735    -0.01200
C1242       C  0.71979156  0.25895961  0.54397771    -0.06300
H1243       H  0.76280795  0.23956284  0.58926412     0.06100
H1244       H  0.68559395  0.24204077  0.53737753     0.09500
Br1245     Br  0.71865875  0.30596402  0.58801250    -0.06000
Br1246     Br  0.82834393  0.29245274  0.53584111    -0.03000
Br1247     Br  0.73719808  0.19671287  0.60760289    -0.00100
Br1248     Br  0.71328471  0.28301220  0.51653021    -0.04500
C1249       C  0.65753694  0.17350180  0.67479695    -0.11900
C1250       C  0.65515273  0.19329156  0.69311396     0.03600
C1251       C  0.65654751  0.18972929  0.72176107    -0.12500
C1252       C  0.66051459  0.16687849  0.73293520     0.18400
C1253       C  0.66279397  0.14715008  0.71489891    -0.09500
C1254       C  0.66133896  0.15057141  0.68622342    -0.02500
H1255       H  0.65481937  0.20500453  0.73548457     0.04900
C1256       C  0.66274520  0.16423369  0.76340456     0.20400
H1257       H  0.66303291  0.13509832  0.67281663     0.10100
C1258       C  0.64256429  0.16794179  0.78027550    -0.15800
C1259       C  0.64419156  0.16570742  0.80918427     0.03100
C1260       C  0.66646146  0.15953523  0.82171332    -0.11200
C1261       C  0.68670845  0.15663047  0.80460674    -0.01200
C1262       C  0.68506016  0.15907396  0.77591745    -0.06300
H1263       H  0.62541377  0.17250288  0.77086113     0.06100
H1264       H  0.70410654  0.15229029  0.81352229     0.09500
Br1265     Br  0.66728288  0.11506363  0.72843519    -0.06000
Br1266     Br  0.65010534  0.22583192  0.68116339    -0.03000
Br1267     Br  0.61539967  0.17156019  0.82991571    -0.00100
Br1268     Br  0.71408518  0.15598624  0.75481787    -0.04500
C1269       C  0.32172799  0.23317075  0.57273407    -0.11900
C1270       C  0.32454183  0.25313247  0.55506453     0.03600
C1271       C  0.30668043  0.27071613  0.55382406    -0.12500
C1272       C  0.28613201  0.26910774  0.57040593     0.18400
C1273       C  0.28264716  0.24858580  0.58697936    -0.09500
C1274       C  0.30029978  0.23064539  0.58777458    -0.02500
H1275       H  0.30927384  0.28625994  0.54067881     0.04900
C1276       C  0.26964210  0.28987640  0.57162678     0.20400
H1277       H  0.29794855  0.21545625  0.60151231     0.10100
C1278       C  0.24632786  0.28804506  0.56048582    -0.15800
C1279       C  0.23039489  0.30748473  0.56170217     0.03100
C1280       C  0.23775002  0.32911689  0.57443199    -0.11200
C1281       C  0.26137945  0.33114192  0.58464637    -0.01200
C1282       C  0.27726067  0.31176902  0.58341095    -0.06300
H1283       H  0.24057655  0.27147741  0.55070835     0.06100
H1284       H  0.26731599  0.34763473  0.59446041     0.09500
Br1285     Br  0.25526527  0.24536836  0.61076489    -0.06000
Br1286     Br  0.35242353  0.25752674  0.53227113    -0.03000
Br1287     Br  0.19945982  0.30395725  0.54421363    -0.00100
Br1288     Br  0.30882887  0.31578788  0.59925266    -0.04500
C1289       C  0.45019787  0.20556859  0.59682219    -0.11900
C1290       C  0.46352904  0.21139932  0.57305208     0.03600
C1291       C  0.48861745  0.21282356  0.57474972    -0.12500
C1292       C  0.50056069  0.20847917  0.59986015     0.18400
C1293       C  0.48710821  0.20448232  0.62399113    -0.09500
C1294       C  0.46206356  0.20270277  0.62225324    -0.02500
H1295       H  0.49888346  0.21592943  0.55611558     0.04900
C1296       C  0.52678363  0.20475564  0.59962188     0.20400
H1297       H  0.45185740  0.19846305  0.64066125     0.10100
C1298       C  0.54231412  0.22417050  0.59492974    -0.15800
C1299       C  0.56720974  0.22063792  0.59275484     0.03100
C1300       C  0.57680324  0.19718595  0.59544901    -0.11200
C1301       C  0.56100016  0.17789434  0.60019576    -0.01200
C1302       C  0.53625730  0.18144774  0.60197678    -0.06300
H1303       H  0.53497848  0.24207745  0.59259746     0.06100
H1304       H  0.56779356  0.15972725  0.60186976     0.09500
Br1305     Br  0.50232957  0.20032545  0.65939098    -0.06000
Br1306     Br  0.44873518  0.21456358  0.53726357    -0.03000
Br1307     Br  0.58655665  0.24861252  0.58574425    -0.00100
Br1308     Br  0.51604412  0.15358121  0.60555087    -0.04500
C1309       C  0.28294696  0.20464075  0.92248945    -0.11900
C1310       C  0.25806119  0.20271582  0.91624723     0.03600
C1311       C  0.24307645  0.22257593  0.91973849    -0.12500
C1312       C  0.25207375  0.24427879  0.93020419     0.18400
C1313       C  0.27626664  0.24555569  0.93896194    -0.09500
C1314       C  0.29162204  0.22602074  0.93448511    -0.02500
H1315       H  0.22430870  0.22125731  0.91359399     0.04900
C1316       C  0.23588846  0.26535639  0.93049010     0.20400
H1317       H  0.31039921  0.22754940  0.94047931     0.10100
C1318       C  0.21453480  0.26422522  0.94583198    -0.15800
C1319       C  0.19688886  0.28198976  0.94315089     0.03100
C1320       C  0.20057863  0.30142877  0.92491573    -0.11200
C1321       C  0.22247180  0.30317660  0.91068422    -0.01200
C1322       C  0.23987289  0.28516744  0.91291469    -0.06300
H1323       H  0.21127882  0.24903804  0.95932722     0.06100
H1324       H  0.22545765  0.31786469  0.89639863     0.09500
Br1325     Br  0.28876930  0.27322598  0.95789654    -0.06000
Br1326     Br  0.24309917  0.17413390  0.90183551    -0.03000
Br1327     Br  0.16833328  0.27877182  0.96508865    -0.00100
Br1328     Br  0.26735055  0.28723007  0.88906079    -0.04500
C1329       C  0.34534857  0.15947351  0.81898324    -0.11900
C1330       C  0.33172586  0.14683960  0.79879817     0.03600
C1331       C  0.33705828  0.14940266  0.77062453    -0.12500
C1332       C  0.35592911  0.16426884  0.76175958     0.18400
C1333       C  0.36982770  0.17651442  0.78182046    -0.09500
C1334       C  0.36458436  0.17395706  0.81006557    -0.02500
H1335       H  0.32627256  0.13982472  0.75546584     0.04900
C1336       C  0.35990882  0.16776264  0.73153279     0.20400
H1337       H  0.37545544  0.18356712  0.82510441     0.10100
C1338       C  0.35532767  0.19033525  0.71983157    -0.15800
C1339       C  0.35839748  0.19449116  0.69149489     0.03100
C1340       C  0.36561476  0.17557651  0.67381029    -0.11200
C1341       C  0.36992880  0.15283478  0.68552746    -0.01200
C1342       C  0.36748610  0.14894106  0.71411891    -0.06300
H1343       H  0.34933035  0.20490901  0.73292242     0.06100
H1344       H  0.37596523  0.13820372  0.67255404     0.09500
Br1345     Br  0.39653622  0.19649522  0.77161094    -0.06000
Br1346     Br  0.30640139  0.12473542  0.80812365    -0.03000
Br1347     Br  0.35177579  0.22643755  0.67853666    -0.00100
Br1348     Br  0.37624939  0.11814113  0.72877359    -0.04500
C1349       C  0.28864122  0.82326316  0.92080374    -0.11900
C1350       C  0.28696136  0.80498516  0.90069221     0.03600
C1351       C  0.26931126  0.78710921  0.90311693    -0.12500
C1352       C  0.25336270  0.78699578  0.92549910     0.18400
C1353       C  0.25588400  0.80446282  0.94634906    -0.09500
C1354       C  0.27322604  0.82262187  0.94370343    -0.02500
H1355       H  0.26737009  0.77380557  0.88690612     0.04900
C1356       C  0.23273687  0.77013335  0.92511881     0.20400
H1357       H  0.27449057  0.83645419  0.95939899     0.10100
C1358       C  0.23560329  0.74657156  0.93475031    -0.15800
C1359       C  0.21659508  0.72996619  0.93302312     0.03100
C1360       C  0.19429077  0.73688301  0.92115145    -0.11200
C1361       C  0.19139739  0.76075384  0.91230076    -0.01200
C1362       C  0.21036812  0.77724663  0.91408068    -0.06300
H1363       H  0.25272224  0.74107050  0.94353540     0.06100
H1364       H  0.17449644  0.76650020  0.90317409     0.09500
Br1365     Br  0.23561972  0.80443106  0.97834103    -0.06000
Br1366     Br  0.30655913  0.80501379  0.86808904    -0.03000
Br1367     Br  0.22208095  0.69856855  0.94818916    -0.00100
Br1368     Br  0.20524161  0.80913603  0.90020806    -0.04500
C1369       C  0.34832117  0.86882925  0.82339866    -0.11900
C1370       C  0.37175845  0.86764905  0.81195702     0.03600
C1371       C  0.37466185  0.86433039  0.78332366    -0.12500
C1372       C  0.35464998  0.86210765  0.76562309     0.18400
C1373       C  0.33141287  0.86305441  0.77692209    -0.09500
C1374       C  0.32841413  0.86645336  0.80536973    -0.02500
H1375       H  0.39264841  0.86356956  0.77477961     0.04900
C1376       C  0.35815475  0.85868402  0.73543196     0.20400
H1377       H  0.31024886  0.86722067  0.81338393     0.10100
C1378       C  0.35851038  0.83539398  0.72452477    -0.15800
C1379       C  0.36097423  0.83142290  0.69602596     0.03100
C1380       C  0.36337373  0.85116557  0.67762559    -0.11200
C1381       C  0.36278896  0.87452000  0.68880112    -0.01200
C1382       C  0.36013778  0.87834101  0.71730770    -0.06300
H1383       H  0.35663797  0.82016901  0.73831000     0.06100
H1384       H  0.36448179  0.88997356  0.67534609     0.09500
Br1385     Br  0.30318829  0.85988277  0.75412685    -0.06000
Br1386     Br  0.40058987  0.87088833  0.83375532    -0.03000
Br1387     Br  0.36044706  0.79847034  0.68422479    -0.00100
Br1388     Br  0.35894329  0.91072585  0.73068865    -0.04500
C1389       C  0.31401912  0.95275844  0.89372232    -0.11900
C1390       C  0.29231713  0.96325884  0.90304919     0.03600
C1391       C  0.28899069  0.98811168  0.90070232    -0.12500
C1392       C  0.30678562  0.00275593  0.88898872     0.18400
C1393       C  0.32795999  0.99221990  0.87874240    -0.09500
C1394       C  0.33128914  0.96749224  0.88096250    -0.02500
H1395       H  0.27278839  0.99619125  0.90890176     0.04900
C1396       C  0.30475800  0.02910083  0.89105580     0.20400
H1397       H  0.34804823  0.95992997  0.87363703     0.10100
C1398       C  0.30682161  0.03972886  0.91725993    -0.15800
C1399       C  0.30982345  0.06451807  0.91991483     0.03100
C1400       C  0.31109567  0.07888795  0.89607330    -0.11200
C1401       C  0.30753176  0.06852238  0.86996225    -0.01200
C1402       C  0.30380783  0.04378038  0.86737140    -0.06300
H1403       H  0.30731092  0.02858556  0.93561836     0.06100
H1404       H  0.30792809  0.07964305  0.85158959     0.09500
Br1405     Br  0.35429179  0.01102945  0.86471128    -0.06000
Br1406     Br  0.26706479  0.94536223  0.92063354    -0.03000
Br1407     Br  0.31433184  0.07765178  0.95627542    -0.00100
Br1408     Br  0.29776654  0.03068771  0.83129387    -0.04500
C1409       C  0.58088278  0.13413570  0.49448850    -0.11900
C1410       C  0.56331090  0.12219238  0.47821777     0.03600
C1411       C  0.53902811  0.12864701  0.48018169    -0.12500
C1412       C  0.53169577  0.14801556  0.49664702     0.18400
C1413       C  0.54938733  0.16131857  0.51094042    -0.09500
C1414       C  0.57362546  0.15407438  0.51030479    -0.02500
H1415       H  0.52573541  0.11866901  0.46834838     0.04900
C1416       C  0.50543569  0.15332156  0.49878647     0.20400
H1417       H  0.58677690  0.16408174  0.52229017     0.10100
C1418       C  0.49359433  0.14976743  0.52404193    -0.15800
C1419       C  0.46834746  0.14871215  0.52509781     0.03100
C1420       C  0.45458547  0.15114060  0.50065787    -0.11200
C1421       C  0.46627337  0.15717778  0.47605318    -0.01200
C1422       C  0.49146977  0.15832443  0.47507237    -0.06300
H1423       H  0.50398817  0.14612821  0.54257463     0.06100
H1424       H  0.45593277  0.15907106  0.45710351     0.09500
Br1425     Br  0.54143010  0.19046455  0.52961520    -0.06000
Br1426     Br  0.57128403  0.09863903  0.45074790    -0.03000
Br1427     Br  0.45332883  0.14184473  0.55983210    -0.00100
Br1428     Br  0.50623286  0.16524474  0.44055472    -0.04500
C1429       C  0.38635925  0.95296819  0.49870131    -0.11900
C1430       C  0.39515306  0.96619087  0.47566323     0.03600
C1431       C  0.39437590  0.99125601  0.47565160    -0.12500
C1432       C  0.38484014  0.00393030  0.49797296     0.18400
C1433       C  0.37423777  0.99115821  0.51980468    -0.09500
C1434       C  0.37495302  0.96599630  0.52003519    -0.02500
H1435       H  0.40222695  0.00103746  0.45853470     0.04900
C1436       C  0.38842549  0.03025534  0.49905922     0.20400
H1437       H  0.36716117  0.95716701  0.53764039     0.10100
C1438       C  0.36900082  0.04591274  0.49517857    -0.15800
C1439       C  0.37249400  0.07089900  0.49468394     0.03100
C1440       C  0.39600880  0.08082684  0.49770078    -0.11200
C1441       C  0.41515879  0.06459504  0.50262038    -0.01200
C1442       C  0.41157217  0.03982075  0.50309997    -0.06300
H1443       H  0.35103541  0.03863907  0.49234166     0.06100
H1444       H  0.43323831  0.07043375  0.50686148     0.09500
Br1445     Br  0.35998920  0.00734488  0.55066141    -0.06000
Br1446     Br  0.40990815  0.95168406  0.44385778    -0.03000
Br1447     Br  0.34407963  0.09020311  0.49024995    -0.00100
Br1448     Br  0.43907061  0.01970611  0.51009062    -0.04500
C1449       C  0.64736168  0.94363551  0.49577238    -0.11900
C1450       C  0.63796397  0.95844841  0.47430241     0.03600
C1451       C  0.64067557  0.98337701  0.47553143    -0.12500
C1452       C  0.65343314  0.99438727  0.49711479     0.18400
C1453       C  0.66435549  0.97989160  0.51738531    -0.09500
C1454       C  0.66137389  0.95489119  0.51659056    -0.02500
H1455       H  0.63228455  0.99436804  0.45970374     0.04900
C1456       C  0.65380055  0.02101394  0.49860436     0.20400
H1457       H  0.67001523  0.94473865  0.53274457     0.10100
C1458       C  0.64221376  0.03254387  0.52052936    -0.15800
C1459       C  0.63898553  0.05748287  0.52063894     0.03100
C1460       C  0.64729853  0.07172344  0.49816112    -0.11200
C1461       C  0.66020716  0.05990997  0.47704099    -0.01200
C1462       C  0.66329576  0.03498962  0.47706514    -0.06300
H1463       H  0.63477581  0.02193450  0.53722781     0.06100
H1464       H  0.66771975  0.06943163  0.45979479     0.09500
Br1465     Br  0.68374410  0.99340967  0.54647172    -0.06000
Br1466     Br  0.62016571  0.94635409  0.44295940    -0.03000
Br1467     Br  0.62200874  0.07038434  0.55188104    -0.00100
Br1468     Br  0.68049900  0.02079062  0.44687154    -0.04500
C1469       C  0.57797730  0.88588036  0.49896296    -0.11900
C1470       C  0.56603764  0.86753742  0.48386621     0.03600
C1471       C  0.54074398  0.86597066  0.48403574    -0.12500
C1472       C  0.52672308  0.88257984  0.49862186     0.18400
C1473       C  0.53855302  0.90059254  0.51402029    -0.09500
C1474       C  0.56367955  0.90176168  0.51450531    -0.02500
H1475       H  0.53193698  0.85202737  0.47214442     0.04900
C1476       C  0.49989575  0.88135063  0.49774847     0.20400
H1477       H  0.57205033  0.91571312  0.52685998     0.10100
C1478       C  0.48728412  0.87899868  0.52272269    -0.15800
C1479       C  0.46241063  0.88290696  0.52385224     0.03100
C1480       C  0.44956877  0.88868446  0.49961627    -0.11200
C1481       C  0.46169221  0.88892129  0.47424554    -0.01200
C1482       C  0.48666218  0.88516812  0.47308542    -0.06300
H1483       H  0.49709722  0.87555485  0.54174250     0.06100
H1484       H  0.45185485  0.89306044  0.45542698     0.09500
Br1485     Br  0.52139734  0.92543059  0.53316795    -0.06000
Br1486     Br  0.58236657  0.84500677  0.46095590    -0.03000
Br1487     Br  0.44725564  0.88234926  0.55932348    -0.00100
Br1488     Br  0.50182407  0.88729542  0.43761295    -0.04500
C1489       C  0.70191527  0.23246246  0.42496254    -0.11900
C1490       C  0.70064817  0.25579062  0.41349504     0.03600
C1491       C  0.71956259  0.27189576  0.41781568    -0.12500
C1492       C  0.73958359  0.26551539  0.43390284     0.18400
C1493       C  0.73988670  0.24318189  0.44746843    -0.09500
C1494       C  0.72133459  0.22663688  0.44250483    -0.02500
H1495       H  0.71905393  0.28927765  0.40773934     0.04900
C1496       C  0.76035440  0.28207167  0.43444209     0.20400
H1497       H  0.72215856  0.20913558  0.45224993     0.10100
C1498       C  0.75750477  0.30485137  0.44618019    -0.15800
C1499       C  0.77494712  0.32269653  0.44258313     0.03100
C1500       C  0.79592288  0.31773438  0.42711113    -0.11200
C1501       C  0.79925656  0.29447273  0.41657814    -0.01200
C1502       C  0.78151904  0.27682196  0.41971025    -0.06300
H1503       H  0.74113867  0.30904193  0.45728919     0.06100
H1504       H  0.81505075  0.29038126  0.40440367     0.09500
Br1505     Br  0.76502467  0.23484968  0.47308416    -0.06000
Br1506     Br  0.67473014  0.26658253  0.39009449    -0.03000
Br1507     Br  0.76854312  0.35339963  0.45904431    -0.00100
Br1508     Br  0.78580241  0.24681086  0.40080854    -0.04500
C1509       C  0.32905197  0.23809699  0.41915377    -0.11900
C1510       C  0.33403026  0.26120006  0.43000684     0.03600
C1511       C  0.31570952  0.27848806  0.43123077    -0.12500
C1512       C  0.29223103  0.27327354  0.42209850     0.18400
C1513       C  0.28708335  0.25009613  0.41194906    -0.09500
C1514       C  0.30532282  0.23278415  0.41075179    -0.02500
H1515       H  0.31985616  0.29624192  0.43912359     0.04900
C1516       C  0.27398908  0.29277673  0.42127156     0.20400
H1517       H  0.30106583  0.21531442  0.40214184     0.10100
C1518       C  0.27727728  0.31184812  0.40272554    -0.15800
C1519       C  0.26035927  0.33037610  0.40056944     0.03100
C1520       C  0.23932479  0.32986965  0.41688011    -0.11200
C1521       C  0.23615218  0.31088988  0.43570572    -0.01200
C1522       C  0.25352452  0.29272594  0.43841674    -0.06300
H1523       H  0.29302900  0.31217687  0.38959271     0.06100
H1524       H  0.22037375  0.31047079  0.44878722     0.09500
Br1525     Br  0.25588934  0.24165584  0.39758424    -0.06000
Br1526     Br  0.36513515  0.27031222  0.44411489    -0.03000
Br1527     Br  0.26648368  0.35511897  0.37381662    -0.00100
Br1528     Br  0.24929557  0.26899695  0.46676873    -0.04500
C1529       C  0.45367696  0.19580695  0.38141499    -0.11900
C1530       C  0.46599750  0.21807494  0.38202113     0.03600
C1531       C  0.49107264  0.21865550  0.37925914    -0.12500
C1532       C  0.50424759  0.19749830  0.37542032     0.18400
C1533       C  0.49191308  0.17543200  0.37319108    -0.09500
C1534       C  0.46690509  0.17478694  0.37613192    -0.02500
H1535       H  0.50047786  0.23567216  0.38095488     0.04900
C1536       C  0.53075532  0.19832767  0.37804702     0.20400
H1537       H  0.45793170  0.15749833  0.37549697     0.10100
C1538       C  0.54075478  0.20450295  0.40379331    -0.15800
C1539       C  0.56537683  0.20198212  0.40886761     0.03100
C1540       C  0.58050301  0.19381251  0.38760588    -0.11200
C1541       C  0.57074371  0.18890309  0.36137376    -0.01200
C1542       C  0.54604647  0.19140899  0.35636994    -0.06300
H1543       H  0.52915320  0.21020866  0.42047367     0.06100
H1544       H  0.58236518  0.18306095  0.34476030     0.09500
Br1545     Br  0.50844718  0.14526230  0.36953346    -0.06000
Br1546     Br  0.45015277  0.24838354  0.38684525    -0.03000
Br1547     Br  0.57676768  0.20730673  0.44597099    -0.00100
Br1548     Br  0.53406837  0.18571572  0.31966384    -0.04500
C1549       C  0.72791660  0.19593826  0.06731027    -0.11900
C1550       C  0.72095087  0.21858857  0.05670284     0.03600
C1551       C  0.73812904  0.23695699  0.05404761    -0.12500
C1552       C  0.76229806  0.23305257  0.06132892     0.18400
C1553       C  0.76942891  0.21020474  0.07064751    -0.09500
C1554       C  0.75237012  0.19191249  0.07337074    -0.02500
H1555       H  0.73255458  0.25448669  0.04672435     0.04900
C1556       C  0.77941266  0.25342320  0.06213352     0.20400
H1557       H  0.75818618  0.17470964  0.08143061     0.10100
C1558       C  0.77795019  0.26965997  0.08418485    -0.15800
C1559       C  0.79589976  0.28692493  0.08851385     0.03100
C1560       C  0.81582639  0.28806911  0.07059632    -0.11200
C1561       C  0.81680345  0.27242402  0.04783913    -0.01200
C1562       C  0.79859517  0.25534969  0.04332358    -0.06300
H1563       H  0.76333825  0.26815219  0.09885641     0.06100
H1564       H  0.83184666  0.27336041  0.03369785     0.09500
Br1565     Br  0.80194989  0.20361062  0.08201989    -0.06000
Br1566     Br  0.68860445  0.22556433  0.04497057    -0.03000
Br1567     Br  0.79354469  0.30669324  0.12091850    -0.00100
Br1568     Br  0.80072106  0.23470109  0.01166551    -0.04500
C1569       C  0.66786887  0.16637824  0.32002677    -0.11900
C1570       C  0.65641831  0.14670897  0.30692926     0.03600
C1571       C  0.65780530  0.14393193  0.27817266    -0.12500
C1572       C  0.67057982  0.16034550  0.26178318     0.18400
C1573       C  0.68223027  0.17989400  0.27481892    -0.09500
C1574       C  0.68066364  0.18284761  0.30359896    -0.02500
H1575       H  0.64837096  0.12910387  0.26842497     0.04900
C1576       C  0.67088247  0.15714622  0.23115704     0.20400
H1577       H  0.68941403  0.19816887  0.31317519     0.10100
C1578       C  0.66003556  0.17448309  0.21400490    -0.15800
C1579       C  0.66027578  0.17221537  0.18506734     0.03100
C1580       C  0.67195263  0.15248679  0.17270013    -0.11200
C1581       C  0.68224470  0.13488550  0.18993655    -0.01200
C1582       C  0.68145383  0.13683603  0.21878863    -0.06300
H1583       H  0.65136484  0.18992358  0.22321334     0.06100
H1584       H  0.69091264  0.11936094  0.18089052     0.09500
Br1585     Br  0.70083543  0.20280181  0.25426773    -0.06000
Br1586     Br  0.63663108  0.12425154  0.32665228    -0.03000
Br1587     Br  0.64535223  0.19714133  0.16367442    -0.00100
Br1588     Br  0.69554131  0.11140968  0.24022321    -0.04500
C1589       C  0.72456969  0.81496676  0.07200203    -0.11900
C1590       C  0.71907197  0.79474809  0.05551382     0.03600
C1591       C  0.73544899  0.77564006  0.05396816    -0.12500
C1592       C  0.75736958  0.77643022  0.06856189     0.18400
C1593       C  0.76329197  0.79710784  0.08394833    -0.09500
C1594       C  0.74699208  0.81611813  0.08549354    -0.02500
H1595       H  0.73104499  0.76007351  0.04147848     0.04900
C1596       C  0.77393418  0.75563693  0.06805993     0.20400
H1597       H  0.75155678  0.83155429  0.09813385     0.10100
C1598       C  0.79616662  0.75799179  0.05477378    -0.15800
C1599       C  0.81383585  0.74029342  0.05736945     0.03100
C1600       C  0.80958016  0.71992745  0.07404158    -0.11200
C1601       C  0.78666025  0.71673794  0.08572459    -0.01200
C1602       C  0.76886477  0.73442324  0.08283139    -0.06300
H1603       H  0.80011846  0.77414440  0.04317743     0.06100
H1604       H  0.78299803  0.70111039  0.09838191     0.09500
Br1605     Br  0.79293160  0.79976438  0.10441699    -0.06000
Br1606     Br  0.69019955  0.79288154  0.03360144    -0.03000
Br1607     Br  0.84327928  0.74487342  0.03735154    -0.00100
Br1608     Br  0.73870069  0.72982886  0.10132703    -0.04500
C1609       C  0.68948228  0.94262801  0.09638549    -0.11900
C1610       C  0.71212955  0.95362680  0.09176244     0.03600
C1611       C  0.71405793  0.97869930  0.09207469    -0.12500
C1612       C  0.69383776  0.99301131  0.09704466     0.18400
C1613       C  0.67145789  0.98216141  0.10217587    -0.09500
C1614       C  0.66957540  0.95723446  0.10243901    -0.02500
H1615       H  0.73137167  0.98709447  0.08835613     0.04900
C1616       C  0.69597373  0.01929101  0.09608283     0.20400
H1617       H  0.65220824  0.94930745  0.10686465     0.10100
C1618       C  0.69649450  0.03071355  0.07027783    -0.15800
C1619       C  0.69525225  0.05570757  0.06850783     0.03100
C1620       C  0.69324916  0.06942769  0.09277320    -0.11200
C1621       C  0.69343953  0.05806219  0.11859993    -0.01200
C1622       C  0.69510785  0.03310475  0.12041526    -0.06300
H1623       H  0.69690052  0.02011951  0.05149225     0.06100
H1624       H  0.69198551  0.06861185  0.13734113     0.09500
Br1625     Br  0.64271519  0.00069176  0.10763440    -0.06000
Br1626     Br  0.74127963  0.93586439  0.08591494    -0.03000
Br1627     Br  0.69416819  0.07021534  0.03260999    -0.00100
Br1628     Br  0.69548177  0.01855370  0.15637475    -0.04500
C1629       C  0.32146393  0.79594661  0.43015591    -0.11900
C1630       C  0.32100616  0.77213487  0.42006692     0.03600
C1631       C  0.30110001  0.75748537  0.42525429    -0.12500
C1632       C  0.28140306  0.76600004  0.44030138     0.18400
C1633       C  0.28207506  0.78940911  0.45120638    -0.09500
C1634       C  0.30192957  0.80427097  0.44586952    -0.02500
H1635       H  0.30062397  0.73949494  0.41671150     0.04900
C1636       C  0.26003715  0.75026177  0.44258113     0.20400
H1637       H  0.30211661  0.82237422  0.45407028     0.10100
C1638       C  0.26170818  0.72928346  0.45848212    -0.15800
C1639       C  0.24426704  0.71121006  0.45617582     0.03100
C1640       C  0.22484105  0.71393219  0.43746915    -0.11200
C1641       C  0.22216494  0.73577417  0.42328507    -0.01200
C1642       C  0.23969807  0.75380114  0.42551207    -0.06300
H1643       H  0.27720147  0.72652408  0.47183571     0.06100
H1644       H  0.20729597  0.73818888  0.40894999     0.09500
Br1645     Br  0.25645690  0.80159785  0.47359235    -0.06000
Br1646     Br  0.34583640  0.75892789  0.39711936    -0.03000
Br1647     Br  0.24796878  0.68322721  0.47901462    -0.00100
Br1648     Br  0.23646222  0.78173927  0.40254152    -0.04500
C1649       C  0.70295999  0.78393299  0.42509252    -0.11900
C1650       C  0.72480563  0.78964811  0.43882844     0.03600
C1651       C  0.74282643  0.77217738  0.44164021    -0.12500
C1652       C  0.73958649  0.74903062  0.43081748     0.18400
C1653       C  0.71770376  0.74316163  0.41766130    -0.09500
C1654       C  0.69958068  0.76043773  0.41513188    -0.02500
H1655       H  0.75964102  0.77678640  0.45184172     0.04900
C1656       C  0.75969396  0.73164796  0.43166358     0.20400
H1657       H  0.68309281  0.75567808  0.40433842     0.10100
C1658       C  0.75977172  0.71313362  0.45136232    -0.15800
C1659       C  0.77751679  0.69522503  0.45086404     0.03100
C1660       C  0.79559822  0.69583612  0.43043268    -0.11200
C1661       C  0.79598678  0.71499199  0.41156788    -0.01200
C1662       C  0.77814774  0.73264849  0.41188662    -0.06300
H1663       H  0.74574088  0.71239010  0.46682841     0.06100
H1664       H  0.80961152  0.71565373  0.39562415     0.09500
Br1665     Br  0.71238573  0.71218983  0.40132020    -0.06000
Br1666     Br  0.73112819  0.82068993  0.45452140    -0.03000
Br1667     Br  0.77658210  0.67090160  0.47895735    -0.00100
Br1668     Br  0.77880439  0.75691551  0.38373790    -0.04500
C1669       C  0.66943186  0.85896133  0.17491605    -0.11900
C1670       C  0.64812510  0.85192705  0.18877723     0.03600
C1671       C  0.64801928  0.85013247  0.21780093    -0.12500
C1672       C  0.66871741  0.85538396  0.23352821     0.18400
C1673       C  0.68978249  0.86259263  0.21987717    -0.09500
C1674       C  0.69002979  0.86426688  0.19102567    -0.02500
H1675       H  0.63169081  0.84456090  0.22819217     0.04900
C1676       C  0.66827377  0.85268974  0.26407907     0.20400
H1677       H  0.70658043  0.86993117  0.18119165     0.10100
C1678       C  0.67650596  0.83126665  0.27603351    -0.15800
C1679       C  0.67571545  0.82774941  0.30472210     0.03100
C1680       C  0.66646334  0.84591053  0.32210868    -0.11200
C1681       C  0.65922399  0.86777397  0.31014291    -0.01200
C1682       C  0.65999254  0.87120184  0.28140195    -0.06300
H1683       H  0.68345566  0.81713761  0.26292651     0.06100
H1684       H  0.65211812  0.88194815  0.32306628     0.09500
Br1685     Br  0.71861330  0.87068437  0.23989025    -0.06000
Br1686     Br  0.61859308  0.84452459  0.16976569    -0.03000
Br1687     Br  0.68834968  0.79808714  0.31891594    -0.00100
Br1688     Br  0.64928953  0.90129058  0.26654669    -0.04500
C1689       C  0.57657588  0.82499695  0.39321281    -0.11900
C1690       C  0.56156856  0.84525497  0.38903742     0.03600
C1691       C  0.53660134  0.84258737  0.38966657    -0.12500
C1692       C  0.52596795  0.82013149  0.39402834     0.18400
C1693       C  0.54065370  0.79968661  0.39641030    -0.09500
C1694       C  0.56577177  0.80226072  0.39633960    -0.02500
H1695       H  0.52531104  0.85831584  0.38728753     0.04900
C1696       C  0.49949279  0.81905966  0.39631988     0.20400
H1697       H  0.57686615  0.78643700  0.39897665     0.10100
C1698       C  0.48550986  0.82503011  0.37310691    -0.15800
C1699       C  0.46066895  0.82832002  0.37537878     0.03100
C1700       C  0.44946752  0.82555272  0.40125267    -0.11200
C1701       C  0.46324688  0.81857302  0.42424636    -0.01200
C1702       C  0.48816883  0.81556216  0.42203355    -0.06300
H1703       H  0.49410227  0.82784438  0.35330328     0.06100
H1704       H  0.45478369  0.81658124  0.44425585     0.09500
Br1705     Br  0.52715849  0.76803399  0.39912011    -0.06000
Br1706     Br  0.57325475  0.87746186  0.38377201    -0.03000
Br1707     Br  0.44286554  0.83621589  0.34244905    -0.00100
Br1708     Br  0.50606471  0.80862021  0.45511046    -0.04500
C1709       C  0.28812703  0.20393187  0.07115642    -0.11900
C1710       C  0.26867120  0.20303029  0.05224342     0.03600
C1711       C  0.25220283  0.22204260  0.05104915    -0.12500
C1712       C  0.25494663  0.24215153  0.06823568     0.18400
C1713       C  0.27504739  0.24365480  0.08598980    -0.09500
C1714       C  0.29152079  0.22472969  0.08717303    -0.02500
H1715       H  0.23683358  0.22086902  0.03719719     0.04900
C1716       C  0.23519746  0.25977918  0.07014803     0.20400
H1717       H  0.30637291  0.22578415  0.10176027     0.10100
C1718       C  0.21495089  0.25364855  0.08577387    -0.15800
C1719       C  0.19650181  0.27019391  0.09024836     0.03100
C1720       C  0.19804673  0.29347844  0.07862821    -0.11200
C1721       C  0.21828459  0.29944667  0.06264026    -0.01200
C1722       C  0.23675735  0.28279143  0.05830064    -0.06300
H1723       H  0.21384937  0.23603871  0.09524489     0.06100
H1724       H  0.21976576  0.31713476  0.05346808     0.09500
Br1725     Br  0.27963707  0.27032292  0.11061807    -0.06000
Br1726     Br  0.26394266  0.17668170  0.02720601    -0.03000
Br1727     Br  0.17087147  0.26010852  0.11419852    -0.00100
Br1728     Br  0.26376647  0.29217589  0.03621901    -0.04500
C1729       C  0.35878962  0.17255766  0.32014057    -0.11900
C1730       C  0.34745894  0.18994026  0.30322207     0.03600
C1731       C  0.34342856  0.18523878  0.27509133    -0.12500
C1732       C  0.35080287  0.16353634  0.26306807     0.18400
C1733       C  0.36184027  0.14605511  0.28001578    -0.09500
C1734       C  0.36537820  0.15050680  0.30831360    -0.02500
H1735       H  0.33497730  0.19886245  0.26233851     0.04900
C1736       C  0.34787016  0.16014483  0.23266477     0.20400
H1737       H  0.37426768  0.13703864  0.32088587     0.10100
C1738       C  0.36838580  0.15854475  0.21591429    -0.15800
C1739       C  0.36642257  0.15633703  0.18706922     0.03100
C1740       C  0.34343728  0.15636325  0.17419684    -0.11200
C1741       C  0.32293188  0.15774124  0.19118014    -0.01200
C1742       C  0.32496561  0.15946085  0.22000716    -0.06300
H1743       H  0.38611536  0.15897734  0.22539401     0.06100
H1744       H  0.30506968  0.15730806  0.18204909     0.09500
Br1745     Br  0.37278048  0.11597697  0.26545492    -0.06000
Br1746     Br  0.33675155  0.22031662  0.31732267    -0.03000
Br1747     Br  0.39591160  0.15232517  0.16706379    -0.00100
Br1748     Br  0.29586893  0.15977317  0.24126685    -0.04500
C1749       C  0.28009756  0.82619274  0.08472305    -0.11900
C1750       C  0.28134686  0.80765206  0.06494094     0.03600
C1751       C  0.26333458  0.78998784  0.06413519    -0.12500
C1752       C  0.24426772  0.79041665  0.08305450     0.18400
C1753       C  0.24325674  0.80872279  0.10300955    -0.09500
C1754       C  0.26085522  0.82661029  0.10341314    -0.02500
H1755       H  0.26426469  0.77579269  0.04886538     0.04900
C1756       C  0.22622911  0.77097983  0.08289597     0.20400
H1757       H  0.25994919  0.84047906  0.11908962     0.10100
C1758       C  0.23228387  0.74892258  0.09486102    -0.15800
C1759       C  0.21506222  0.73075591  0.09773019     0.03100
C1760       C  0.19122432  0.73449269  0.08806487    -0.11200
C1761       C  0.18540443  0.75658167  0.07563654    -0.01200
C1762       C  0.20267644  0.77474274  0.07300127    -0.06300
H1763       H  0.25033189  0.74615529  0.10290612     0.06100
H1764       H  0.16728688  0.75984737  0.06810325     0.09500
Br1765     Br  0.21899951  0.80920675  0.13114999    -0.06000
Br1766     Br  0.30662843  0.80606415  0.03810986    -0.03000
Br1767     Br  0.22515468  0.70232659  0.11707103    -0.00100
Br1768     Br  0.19331386  0.80452367  0.05615600    -0.04500
C1769       C  0.36524027  0.85069007  0.32652285    -0.11900
C1770       C  0.36932393  0.87253738  0.31233075     0.03600
C1771       C  0.36650493  0.87354180  0.28349728    -0.12500
C1772       C  0.35977428  0.85311260  0.26832231     0.18400
C1773       C  0.35629315  0.83123752  0.28227956    -0.09500
C1774       C  0.35896857  0.83018541  0.31102545    -0.02500
H1775       H  0.36948977  0.89039320  0.27283338     0.04900
C1776       C  0.35573414  0.85512078  0.23809171     0.20400
H1777       H  0.35611880  0.81313281  0.32130024     0.10100
C1778       C  0.37545280  0.85711699  0.22021476    -0.15800
C1779       C  0.37207955  0.85961939  0.19155239     0.03100
C1780       C  0.34846643  0.86032793  0.18031632    -0.11200
C1781       C  0.32883317  0.85792851  0.19848258    -0.01200
C1782       C  0.33228447  0.85546991  0.22699517    -0.06300
H1783       H  0.39357783  0.85679967  0.22864382     0.06100
H1784       H  0.31053230  0.85852483  0.19061723     0.09500
Br1785     Br  0.34827999  0.80223485  0.26282778    -0.06000
Br1786     Br  0.37998087  0.90129910  0.33058091    -0.03000
Br1787     Br  0.40054351  0.86210592  0.16937210    -0.00100
Br1788     Br  0.30436373  0.85371292  0.25019354    -0.04500
C1789       C  0.31606364  0.94900354  0.11532003    -0.11900
C1790       C  0.32771894  0.96201810  0.13660659     0.03600
C1791       C  0.32520437  0.98695505  0.13780045    -0.12500
C1792       C  0.31100302  0.99917155  0.11831649     0.18400
C1793       C  0.29780789  0.98597001  0.09853752    -0.09500
C1794       C  0.30028976  0.96106313  0.09732552    -0.02500
H1795       H  0.33529404  0.99701581  0.15317533     0.04900
C1796       C  0.31415024  0.02532287  0.11538239     0.20400
H1797       H  0.29100919  0.95130477  0.08106155     0.10100
C1798       C  0.33653431  0.03359790  0.10616822    -0.15800
C1799       C  0.34032476  0.05781346  0.10044374     0.03100
C1800       C  0.32127716  0.07434927  0.10377406    -0.11200
C1801       C  0.29897096  0.06612169  0.11371820    -0.01200
C1802       C  0.29541877  0.04180473  0.11992863    -0.06300
H1803       H  0.35100058  0.02094237  0.10257212     0.06100
H1804       H  0.28441677  0.07868615  0.11715393     0.09500
Br1805     Br  0.27833391  0.00115936  0.07070221    -0.06000
Br1806     Br  0.34732298  0.94699622  0.16451811    -0.03000
Br1807     Br  0.37151989  0.06640423  0.08631895    -0.00100
Br1808     Br  0.26522592  0.03201551  0.13547411    -0.04500
C1809       C  0.56788969  0.13443791  0.99819400    -0.11900
C1810       C  0.56022483  0.15877234  0.99627637     0.03600
C1811       C  0.53551513  0.16439029  0.99581860    -0.12500
C1812       C  0.51808223  0.14624908  0.99773855     0.18400
C1813       C  0.52544957  0.12239956  0.00114355    -0.09500
C1814       C  0.54980860  0.11681012  0.00185382    -0.02500
H1815       H  0.52988322  0.18294904  0.99381450     0.04900
C1816       C  0.49207833  0.15153270  0.99573572     0.20400
H1817       H  0.55388444  0.09815856  0.00612463     0.10100
C1818       C  0.48010021  0.14533963  0.97129095    -0.15800
C1819       C  0.45511355  0.14226436  0.97061877     0.03100
C1820       C  0.44108388  0.14658050  0.99468492    -0.11200
C1821       C  0.45342518  0.15462102  0.01868285    -0.01200
C1822       C  0.47856915  0.15680693  0.01936953    -0.06300
H1823       H  0.49054330  0.14067369  0.95320420     0.06100
H1824       H  0.44424874  0.15752675  0.03791516     0.09500
Br1825     Br  0.50266870  0.09653939  0.00510516    -0.06000
Br1826     Br  0.58235748  0.18532935  0.99489638    -0.03000
Br1827     Br  0.44247585  0.12942878  0.93659498    -0.00100
Br1828     Br  0.49398202  0.16424141  0.05395368    -0.04500
C1829       C  0.62815217  0.94000794  0.99849254    -0.11900
C1830       C  0.63135111  0.95190700  0.02380765     0.03600
C1831       C  0.63643898  0.97655114  0.02431459    -0.12500
C1832       C  0.63599903  0.99031849  0.99989252     0.18400
C1833       C  0.63327515  0.97812804  0.97431738    -0.09500
C1834       C  0.62981994  0.95313395  0.97386099    -0.02500
H1835       H  0.63891330  0.98532972  0.04409991     0.04900
C1836       C  0.63542405  0.01718716  0.00188906     0.20400
H1837       H  0.62707437  0.94409341  0.95425193     0.10100
C1838       C  0.65116664  0.03146143  0.98609139    -0.15800
C1839       C  0.64872507  0.05660354  0.98492206     0.03100
C1840       C  0.63080402  0.06815975  0.00063098    -0.11200
C1841       C  0.61667548  0.05395875  0.01837068    -0.01200
C1842       C  0.61831089  0.02894723  0.01862151    -0.06300
H1843       H  0.66481028  0.02294410  0.97366041     0.06100
H1844       H  0.60313060  0.06233778  0.03118199     0.09500
Br1845     Br  0.63155029  0.99455760  0.93946862    -0.06000
Br1846     Br  0.62558433  0.93569873  0.05804308    -0.03000
Br1847     Br  0.66933917  0.07358240  0.96019120    -0.00100
Br1848     Br  0.59451174  0.01220515  0.04006486    -0.04500
C1849       C  0.37348349  0.95093828  0.00656430    -0.11900
C1850       C  0.37683466  0.96603673  0.02965353     0.03600
C1851       C  0.37453211  0.99099230  0.02676664    -0.12500
C1852       C  0.36900595  0.00129601  0.00097479     0.18400
C1853       C  0.36406725  0.98596093  0.97840161    -0.09500
C1854       C  0.36619820  0.96101543  0.98134949    -0.02500
H1855       H  0.37834744  0.00245341  0.04436227     0.04900
C1856       C  0.37165823  0.02775592  0.99728907     0.20400
H1857       H  0.36364322  0.94957164  0.96344203     0.10100
C1858       C  0.38947466  0.03638684  0.97939831    -0.15800
C1859       C  0.39406989  0.06099075  0.97676432     0.03100
C1860       C  0.38163179  0.07772249  0.99342974    -0.11200
C1861       C  0.36304327  0.06912620  0.01051214    -0.01200
C1862       C  0.35780763  0.04444389  0.01219665    -0.06300
H1863       H  0.39994478  0.02383020  0.96731125     0.06100
H1864       H  0.35274683  0.08156074  0.02293668     0.09500
Br1865     Br  0.35542073  0.99830076  0.94282090    -0.06000
Br1866     Br  0.38568523  0.95332300  0.06515082    -0.03000
Br1867     Br  0.41618393  0.07029630  0.94836467    -0.00100
Br1868     Br  0.33088483  0.03428679  0.03389686    -0.04500
C1869       C  0.43895143  0.88686700  0.00548227    -0.11900
C1870       C  0.44707793  0.86321660  0.99943610     0.03600
C1871       C  0.47184942  0.85835585  0.99734961    -0.12500
C1872       C  0.48899685  0.87645381  0.00182565     0.18400
C1873       C  0.48120727  0.89935371  0.00986980    -0.09500
C1874       C  0.45667432  0.90424487  0.01206016    -0.02500
H1875       H  0.47774893  0.84046468  0.99182603     0.04900
C1876       C  0.51499125  0.87196526  0.99743254     0.20400
H1877       H  0.45208068  0.92185300  0.01942026     0.10100
C1878       C  0.52634447  0.88329793  0.97521045    -0.15800
C1879       C  0.55146077  0.88446782  0.97358238     0.03100
C1880       C  0.56603094  0.87429210  0.99483499    -0.11200
C1881       C  0.55428463  0.86046193  0.01530440    -0.01200
C1882       C  0.52908532  0.85945285  0.01682047    -0.06300
H1883       H  0.51553541  0.89255623  0.95983827     0.06100
H1884       H  0.56418890  0.85096696  0.03103384     0.09500
Br1885     Br  0.50354544  0.92480133  0.01827083    -0.06000
Br1886     Br  0.42557204  0.83653721  0.99377281    -0.03000
Br1887     Br  0.56420595  0.90203602  0.94264688    -0.00100
Br1888     Br  0.51476222  0.84237353  0.04703329    -0.04500
loop_ 
_geom_bond_atom_site_label_1 
_geom_bond_atom_site_label_2 
_geom_bond_distance 
_geom_bond_site_symmetry_2 
_ccdc_geom_bond_type 
C1            C2   1.537       .  S
C1            C7   1.551       .  S
C1            C5   1.539   1_554  S
C1         C1869   1.543       .  S
C2            H9   1.086       .  S
C2            C3   1.368       .  D
C3            C4   1.548       .  S
C3           C50   1.485       .  S
C4            C8   1.534       .  S
C4            C6   1.549   1_554  S
C4           H10   1.111       .  S
C5           H11   1.086       .  S
C5            C6   1.365       .  D
C6          C202   1.486       .  S
C7           H12   1.081       .  S
C7            C8   1.361       .  D
C8         C1849   1.482       .  S
C13          C14   1.542       .  S
C13          C19   1.543       .  S
C13          C17   1.553   1_556  S
C13        C1880   1.540       .  S
C14          H21   1.086       .  S
C14          C15   1.367       .  D
C15          C16   1.540       .  S
C15         C280   1.478       .  S
C16          C20   1.533       .  S
C16          C18   1.541   1_556  S
C16          H22   1.111       .  S
C17          H23   1.081       .  S
C17          C18   1.366       .  D
C18         C102   1.483       .  S
C19          H24   1.087       .  S
C19          C20   1.360       .  D
C20        C1829   1.481       .  S
C25          C26   1.540   1_556  S
C25          C31   1.545       .  S
C25          C29   1.539       .  S
C25        C1809   1.543       .  S
C26          H33   1.086       .  S
C26          C27   1.365       .  D
C27          C28   1.542   1_554  S
C27         C115   1.479       .  S
C28          C32   1.543       .  S
C28          C30   1.550       .  S
C28          H34   1.108       .  S
C29          H35   1.086       .  S
C29          C30   1.368       .  D
C30         C293   1.482       .  S
C31          H36   1.086       .  S
C31          C32   1.361       .  D
C32        C1840   1.503   1_556  S
C37          C38   1.539       .  S
C37          C43   1.541       .  S
C37          C41   1.546   1_556  S
C37        C1820   1.541       .  S
C38          H45   1.085       .  S
C38          C39   1.364       .  D
C39          C40   1.545       .  S
C39         C215   1.481       .  S
C40          C44   1.541       .  S
C40          C42   1.546   1_556  S
C40          H46   1.110       .  S
C41          H47   1.081       .  S
C41          C42   1.365       .  D
C42          C63   1.483       .  S
C43          H48   1.086       .  S
C43          C44   1.368       .  D
C44        C1860   1.498       .  S
In49         O51   2.250       .  S
In49         O52   2.220       .  S
In49         O60   2.236       .  S
In49         O54   2.271       .  S
In49         O56   2.265       .  S
In49         O57   2.239       .  S
In49         O58   2.256       .  S
In49         O61   2.232       .  S
C50          O56   1.265       .  A
C50          O58   1.259       .  A
O51          C59   1.263       .  A
O52          C59   1.260       .  A
C53          O60   1.258       .  A
C53          O54   1.264       .  A
C53        C1780   1.492       .  S
C55          O57   1.261       .  A
C55          O61   1.259       .  A
C55        C1789   1.474       .  S
C59        C1749   1.471       .  S
In62         O64   2.202       .  S
In62         O65   2.251       .  S
In62         O73   2.239       .  S
In62         O67   2.265       .  S
In62         O69   2.251       .  S
In62         O70   2.246       .  S
In62         O71   2.257       .  S
In62         O74   2.236       .  S
C63          O69   1.266       .  A
C63          O71   1.260       .  A
O64          C72   1.259       .  A
O65          C72   1.267       .  A
C66          O73   1.262       .  A
C66          O67   1.266       .  A
C66        C1740   1.494       .  S
C68          O70   1.264       .  A
C68          O74   1.262       .  A
C68        C1709   1.479       .  S
C72        C1800   1.474       .  S
In75         O77   2.219       .  S
In75         O78   2.258       .  S
In75         O86   2.238       .  S
In75         O80   2.273       .  S
In75         O82   2.261       .  S
In75         O83   2.241       .  S
In75         O84   2.254       .  S
In75         O87   2.251       .  S
C76         C158   1.485       .  S
C76          O82   1.265       .  A
C76          O84   1.259       .  A
O77          C85   1.257       .  A
O78          C85   1.264       .  A
C79          O86   1.259       .  A
C79          O80   1.265       .  A
C79        C1680   1.487       .  S
C81          O83   1.263       .  A
C81          O87   1.263       .  A
C81        C1649   1.484       .  S
C85        C1689   1.483       .  S
In88         O90   2.251       .  S
In88         O91   2.228       .  S
In88         O99   2.231       .  S
In88         O93   2.265       .  S
In88         O95   2.264       .  S
In88         O96   2.245       .  S
In88         O97   2.229       .  S
In88        O100   2.226       .  S
C89         C167   1.476       .  S
C89          O95   1.266       .  A
C89          O97   1.258       .  A
O90          C98   1.263       .  A
O91          C98   1.260       .  A
C92          O99   1.261       .  A
C92          O93   1.266       .  A
C92        C1769   1.488       .  S
C94          O96   1.262       .  A
C94         O100   1.260       .  A
C94        C1700   1.468       .  S
C98        C1629   1.478       .  S
In101       O103   2.224       .  S
In101       O104   2.237       .  S
In101       O112   2.227       .  S
In101       O106   2.286       .  S
In101       O108   2.267       .  S
In101       O109   2.236       .  S
In101       O110   2.242       .  S
In101       O113   2.253       .  S
C102        O108   1.267       .  A
C102        O110   1.259       .  A
O103        C111   1.262       .  A
O104        C111   1.262       .  A
C105        O112   1.259       .  A
C105        O106   1.267       .  A
C105       C1669   1.496       .  S
C107        O109   1.261       .  A
C107        O113   1.263       .  A
C107       C1589   1.478       .  S
C111       C1609   1.480       .  S
In114       O116   2.253       .  S
In114       O117   2.237       .  S
In114       O125   2.234       .  S
In114       O119   2.277       .  S
In114       O121   2.271       .  S
In114       O122   2.234       .  S
In114       O123   2.234       .  S
In114       O126   2.223       .  S
C115        O121   1.266       .  A
C115        O123   1.257       .  A
O116        C124   1.261       .  A
O117        C124   1.261       .  A
C118        O125   1.260       .  A
C118        O119   1.266       .  A
C118       C1580   1.488       .  S
C120        O122   1.263       .  A
C120        O126   1.261       .  A
C120       C1620   1.461       .  S
C124       C1549   1.483       .  S
In127       O129   2.234       .  S
In127       O130   2.250       .  S
In127       O138   2.242       .  S
In127       O132   2.271       .  S
In127       O134   2.272       .  S
In127       O135   2.252       .  S
In127       O136   2.261       .  S
In127       O139   2.250       .  S
C128        C194   1.489       .  S
C128        O134   1.265       .  A
C128        O136   1.260       .  A
O129        C137   1.260       .  A
O130        C137   1.262       .  A
C131        O138   1.260       .  A
C131        O132   1.266       .  A
C131       C1729   1.486       .  S
C133        O135   1.262       .  A
C133        O139   1.264       .  A
C133       C1509   1.489       .  S
C137       C1529   1.484       .  S
In140       O142   2.249       .  S
In140       O143   2.218       .  S
In140       O151   2.256       .  S
In140       O145   2.261       .  S
In140       O147   2.266       .  S
In140       O148   2.232       .  S
In140       O149   2.245       .  S
In140       O152   2.234       .  S
C141        C179   1.481       .  S
C141        O147   1.265       .  A
C141        O149   1.257       .  A
O142        C150   1.264       .  A
O143        C150   1.258       .  A
C144        O151   1.260       .  A
C144        O145   1.265       .  A
C144       C1569   1.488       .  S
C146        O148   1.260       .  A
C146        O152   1.259       .  A
C146       C1540   1.465       .  S
C150       C1489   1.476       .  S
C153        C154   1.550       .  S
C153        C159   1.534       .  S
C153        C157   1.537       .  S
C153       C1449   1.541       .  S
C154        H161   1.081       .  S
C154        C155   1.366       .  D
C155        C156   1.543       .  S
C155        C267   1.484       .  S
C156        C160   1.549       .  S
C156        C158   1.550       .  S
C156        H162   1.107       .  S
C157        H163   1.086       .  S
C157        C158   1.366       .  D
C159        H164   1.086       .  S
C159        C160   1.366       .  D
C160       C1469   1.506       .  S
C165        C166   1.541       .  S
C165        C171   1.543       .  S
C165        C169   1.552       .  S
C165       C1429   1.538       .  S
C166        H173   1.086       .  S
C166        C167   1.364       .  D
C167        C168   1.540       .  S
C168        C172   1.531       .  S
C168        C170   1.541       .  S
C168        H174   1.111       .  S
C169        H175   1.081       .  S
C169        C170   1.367       .  D
C170        C254   1.479       .  S
C171        H176   1.087       .  S
C171        C172   1.361       .  D
C172       C1480   1.481       .  S
C177        C178   1.551       .  S
C177        C183   1.543       .  S
C177        C181   1.536       .  S
C177       C1460   1.541       .  S
C178        H185   1.080       .  S
C178        C179   1.364       .  D
C179        C180   1.540       .  S
C180        C184   1.538       .  S
C180        C182   1.545       .  S
C180        H186   1.110       .  S
C181        H187   1.086       .  S
C181        C182   1.363       .  D
C182        C241   1.477       .  S
C183        H188   1.085       .  S
C183        C184   1.369       .  D
C184       C1409   1.497       .  S
C189        C190   1.537       .  S
C189        C195   1.548       .  S
C189        C193   1.544       .  S
C189       C1440   1.544       .  S
C190        H197   1.086       .  S
C190        C191   1.364       .  D
C191        C192   1.546       .  S
C191        C228   1.479       .  S
C192        C196   1.535       .  S
C192        C194   1.548       .  S
C192        H198   1.111       .  S
C193        H199   1.086       .  S
C193        C194   1.370       .  D
C195        H200   1.080       .  S
C195        C196   1.359       .  D
C196       C1420   1.482       .  S
In201       O203   2.226       .  S
In201       O204   2.247       .  S
In201       O212   2.239       .  S
In201       O206   2.276       .  S
In201       O208   2.267       .  S
In201       O209   2.245       .  S
In201       O210   2.263       .  S
In201       O213   2.250       .  S
C202        O208   1.265       .  A
C202        O210   1.258       .  A
O203        C211   1.262       .  A
O204        C211   1.262       .  A
C205        O212   1.261       .  A
C205        O206   1.266       .  A
C205       C1369   1.496       .  S
C207        O209   1.261       .  A
C207        O213   1.261       .  A
C207       C1349   1.475       .  S
C211       C1389   1.482       .  S
In214       O216   2.262       .  S
In214       O217   2.227       .  S
In214       O225   2.246       .  S
In214       O219   2.281       .  S
In214       O221   2.269       .  S
In214       O222   2.236       .  S
In214       O223   2.251       .  S
In214       O226   2.235       .  S
C215        O221   1.264       .  A
C215        O223   1.256       .  A
O216        C224   1.262       .  A
O217        C224   1.256       .  A
C218        O225   1.259       .  A
C218        O219   1.266       .  A
C218       C1329   1.492       .  S
C220        O222   1.261       .  A
C220        O226   1.261       .  A
C220       C1400   1.462       .  S
C224       C1309   1.482       .  S
In227       O229   2.260       .  S
In227       O230   2.222       .  S
In227       O238   2.231       .  S
In227       O232   2.280       .  S
In227       O234   2.267       .  S
In227       O235   2.240       .  S
In227       O236   2.242       .  S
In227       O239   2.226       .  S
C228        O234   1.266       .  A
C228        O236   1.256       .  A
O229        C237   1.263       .  A
O230        C237   1.259       .  A
C231        O238   1.260       .  A
C231        O232   1.268       .  A
C231       C1340   1.492       .  S
C233        O235   1.261       .  A
C233        O239   1.260       .  A
C233       C1289   1.463       .  S
C237       C1269   1.475       .  S
In240       O242   2.215       .  S
In240       O243   2.232       .  S
In240       O251   2.232       .  S
In240       O245   2.267       .  S
In240       O247   2.256       .  S
In240       O248   2.215       .  S
In240       O249   2.234       .  S
In240       O252   2.236       .  S
C241        O247   1.267       .  A
C241        O249   1.258       .  A
O242        C250   1.263       .  A
O243        C250   1.263       .  A
C244        O251   1.259       .  A
C244        O245   1.268       .  A
C244       C1249   1.493       .  S
C246        O248   1.262       .  A
C246        O252   1.261       .  A
C246       C1240   1.471       .  S
C250       C1300   1.478       .  S
In253       O255   2.226       .  S
In253       O256   2.239       .  S
In253       O264   2.241       .  S
In253       O258   2.269       .  S
In253       O260   2.272       .  S
In253       O261   2.242       .  S
In253       O262   2.235       .  S
In253       O265   2.243       .  S
C254        O260   1.265       .  A
C254        O262   1.256       .  A
O255        C263   1.261       .  A
O256        C263   1.263       .  A
C257        O264   1.260       .  A
C257        O258   1.267       .  A
C257       C1380   1.496       .  S
C259        O261   1.261       .  A
C259        O265   1.262       .  A
C259       C1189   1.476       .  S
C263       C1220   1.467       .  S
In266       O268   2.249       .  S
In266       O269   2.238       .  S
In266       O277   2.247       .  S
In266       O271   2.272       .  S
In266       O273   2.264       .  S
In266       O274   2.245       .  S
In266       O275   2.249       .  S
In266       O278   2.212       .  S
C267        O273   1.266       .  A
C267        O275   1.259       .  A
O268        C276   1.263       .  A
O269        C276   1.261       .  A
C270        O277   1.259       .  A
C270        O271   1.263       .  A
C270       C1169   1.489       .  S
C272        O274   1.263       .  A
C272        O278   1.258       .  A
C272       C1209   1.469       .  S
C276       C1160   1.478       .  S
In279       O281   2.242       .  S
In279       O282   2.234       .  S
In279       O290   2.243       .  S
In279       O284   2.261       .  S
In279       O286   2.266       .  S
In279       O287   2.248       .  S
In279       O288   2.235       .  S
In279       O291   2.213       .  S
C280        O286   1.265       .  A
C280        O288   1.258       .  A
O281        C289   1.260       .  A
O282        C289   1.262       .  A
C283        O290   1.261       .  A
C283        O284   1.265       .  A
C283       C1180   1.491       .  S
C285        O287   1.264       .  A
C285        O291   1.261       .  A
C285       C1140   1.465       .  S
C289       C1109   1.482       .  S
In292       O294   2.220       .  S
In292       O295   2.240       .  S
In292       O303   2.225       .  S
In292       O297   2.275       .  S
In292       O299   2.267       .  S
In292       O300   2.229       .  S
In292       O301   2.244       .  S
In292       O304   2.244       .  S
C293        O299   1.265       .  A
C293        O301   1.257       .  A
O294        C302   1.258       .  A
O295        C302   1.262       .  A
C296        O303   1.260       .  A
C296        O297   1.266       .  A
C296       C1260   1.492       .  S
C298        O300   1.260       .  A
C298        O304   1.264       .  A
C298       C1089   1.476       .  S
C302       C1129   1.478       .  S
C305        C306   1.547       .  S
C305        C311   1.539       .  S
C305        C309   1.539   1_554  S
C305       C1080   1.537   1_554  S
C306        H313   1.080       .  S
C306        C307   1.364       .  D
C307        C308   1.549       .  S
C307        C380   1.484       .  S
C308        C312   1.543       .  S
C308        C310   1.548   1_554  S
C308        H314   1.111       .  S
C309        H315   1.086       .  S
C309        C310   1.365       .  D
C310        C584   1.484       .  S
C311        H316   1.087       .  S
C311        C312   1.361       .  D
C312       C1049   1.488       .  S
C317        C318   1.548       .  S
C317        C323   1.538       .  S
C317        C321   1.531   1_556  S
C317       C1069   1.534       .  S
C318        H325   1.081       .  S
C318        C319   1.366       .  D
C319        C320   1.542       .  S
C319        C506   1.479       .  S
C320        C324   1.550       .  S
C320        C322   1.549   1_556  S
C320        H326   1.106       .  S
C321        H327   1.087       .  S
C321        C322   1.360       .  D
C322        C432   1.480       .  S
C323        H328   1.086       .  S
C323        C324   1.368       .  D
C324       C1029   1.510       .  S
C329        C330   1.544       .  S
C329        C335   1.550       .  S
C329        C333   1.529   1_554  S
C329       C1009   1.539   1_554  S
C330        H337   1.086       .  S
C330        C331   1.368       .  D
C331        C332   1.544   1_554  S
C331        C445   1.483       .  S
C332        C336   1.545   1_556  S
C332        C334   1.550       .  S
C332        H338   1.107       .  S
C333        H339   1.087       .  S
C333        C334   1.360       .  D
C334        C519   1.480       .  S
C335        H340   1.083       .  S
C335        C336   1.370       .  D
C336       C1040   1.507       .  S
C341        C342   1.540   1_554  S
C341        C347   1.541       .  S
C341        C345   1.528       .  S
C341       C1020   1.538       .  S
C342        H349   1.080       .  S
C342        C343   1.367       .  D
C343        C344   1.554   1_556  S
C343        C597   1.489       .  S
C344        C348   1.549       .  S
C344        C346   1.559       .  S
C344        H350   1.108       .  S
C345        H351   1.087       .  S
C345        C346   1.362       .  D
C346        C393   1.489       .  S
C347        H352   1.086   1_554  S
C347        C348   1.366       .  D
C348       C1060   1.505   1_554  S
In353       O355   2.213       .  S
In353       O356   2.229       .  S
In353       O364   2.225       .  S
In353       O358   2.279       .  S
In353       O360   2.264       .  S
In353       O361   2.222       .  S
In353       O362   2.247       .  S
In353       O365   2.251       .  S
C354        C462   1.483       .  S
C354        O360   1.267       .  A
C354        O362   1.258       .  A
O355        C363   1.262       .  A
O356        C363   1.262       .  A
C357        O364   1.258       .  A
C357        O358   1.269       .  A
C357        C969   1.492       .  S
C359        O361   1.260       .  A
C359        O365   1.265       .  A
C359       C1500   1.480       .  S
C363       C1000   1.476       .  S
In366       O368   2.242       .  S
In366       O369   2.251       .  S
In366       O377   2.233       .  S
In366       O371   2.269       .  S
In366       O373   2.280       .  S
In366       O374   2.238       .  S
In366       O375   2.235       .  S
In366       O378   2.222       .  S
C367        C471   1.482       .  S
C367        O373   1.266       .  A
C367        O375   1.257       .  A
O368        C376   1.262       .  A
O369        C376   1.261       .  A
C370        O377   1.262       .  A
C370        O371   1.268       .  A
C370        C960   1.493       .  S
C372        O374   1.264       .  A
C372        O378   1.261       .  A
C372        C989   1.460       .  S
C376       C1660   1.479       .  S
In379       O381   2.263       .  S
In379       O382   2.223       .  S
In379       O390   2.242       .  S
In379       O384   2.277       .  S
In379       O386   2.258       .  S
In379       O387   2.250       .  S
In379       O388   2.257       .  S
In379       O391   2.221       .  S
C380        O386   1.266       .  A
C380        O388   1.257       .  A
O381        C389   1.264       .  A
O382        C389   1.261       .  A
C383        O390   1.261       .  A
C383        O384   1.266       .  A
C383        C949   1.495       .  S
C385        O387   1.263       .  A
C385        O391   1.260       .  A
C385        C929   1.470       .  S
C389       C1600   1.479       .  S
In392       O394   2.226       .  S
In392       O395   2.237       .  S
In392       O403   2.229       .  S
In392       O397   2.279       .  S
In392       O399   2.253       .  S
In392       O400   2.240       .  S
In392       O401   2.265       .  S
In392       O404   2.228       .  S
C393        O399   1.268       .  A
C393        O401   1.260       .  A
O394        C402   1.261       .  A
O395        C402   1.266       .  A
C396        O403   1.261       .  A
C396        O397   1.268       .  A
C396        C920   1.495       .  S
C398        O400   1.265       .  A
C398        O404   1.261       .  A
C398       C1760   1.481       .  S
C402        C940   1.481       .  S
In405       O407   2.266       .  S
In405       O408   2.244       .  S
In405       O416   2.231       .  S
In405       O410   2.274       .  S
In405       O412   2.278       .  S
In405       O413   2.254       .  S
In405       O414   2.235       .  S
In405       O417   2.244       .  S
C406        C495   1.482       .  S
C406        O412   1.265       .  A
C406        O414   1.258       .  A
O407        C415   1.262       .  A
O408        C415   1.260       .  A
C409        O416   1.260       .  A
C409        O410   1.266       .  A
C409        C869   1.489       .  S
C411        O413   1.262       .  A
C411        O417   1.259       .  A
C411        C889   1.472       .  S
C415       C1520   1.483       .  S
In418       O420   2.214       .  S
In418       O421   2.256       .  S
In418       O429   2.231       .  S
In418       O423   2.271       .  S
In418       O425   2.259       .  S
In418       O426   2.225       .  S
In418       O427   2.230       .  S
In418       O430   2.254       .  S
C419        C483   1.469       .  S
C419        O425   1.266       .  A
C419        O427   1.258       .  A
O420        C428   1.260       .  A
O421        C428   1.265       .  A
C422        O429   1.260       .  A
C422        O423   1.268       .  A
C422        C909   1.490       .  S
C424        O426   1.263       .  A
C424        O430   1.265       .  A
C424       C1640   1.478       .  S
C428        C900   1.482       .  S
In431       O433   2.199       .  S
In431       O434   2.248       .  S
In431       O442   2.238       .  S
In431       O436   2.264       .  S
In431       O438   2.245       .  S
In431       O439   2.248       .  S
In431       O440   2.248       .  S
In431       O443   2.235       .  S
C432        O438   1.267       .  A
C432        O440   1.259       .  A
O433        C441   1.258       .  A
O434        C441   1.268       .  A
C435        O442   1.263       .  A
C435        O436   1.266       .  A
C435        C980   1.493       .  S
C437        O439   1.264       .  A
C437        O443   1.262       .  A
C437       C1560   1.476       .  S
C441        C849   1.475       .  S
In444       O446   2.257       .  S
In444       O447   2.229       .  S
In444       O455   2.243       .  S
In444       O449   2.270       .  S
In444       O451   2.274       .  S
In444       O452   2.241       .  S
In444       O453   2.241       .  S
In444       O456   2.230       .  S
C445        O451   1.264       .  A
C445        O453   1.258       .  A
O446        C454   1.263       .  A
O447        C454   1.258       .  A
C448        O455   1.260       .  A
C448        O449   1.265       .  A
C448        C880   1.487       .  S
C450        O452   1.260       .  A
C450        O456   1.260       .  A
C450        C860   1.469       .  S
C454       C1720   1.481       .  S
C457        C458   1.548       .  S
C457        C463   1.540       .  S
C457        C461   1.536       .  S
C457        C809   1.538       .  S
C458        H465   1.081       .  S
C458        C459   1.365       .  D
C459        C460   1.542       .  S
C459        C571   1.479       .  S
C460        C464   1.547       .  S
C460        C462   1.549       .  S
C460        H466   1.109       .  S
C461        H467   1.086       .  S
C461        C462   1.362       .  D
C463        H468   1.086       .  S
C463        C464   1.367       .  D
C464        C840   1.503       .  S
C469        C470   1.548       .  S
C469        C475   1.551       .  S
C469        C473   1.540       .  S
C469        C789   1.542       .  S
C470        H477   1.085       .  S
C470        C471   1.370       .  D
C471        C472   1.543       .  S
C472        C476   1.535       .  S
C472        C474   1.540       .  S
C472        H478   1.111       .  S
C473        H479   1.086       .  S
C473        C474   1.364       .  D
C474        C558   1.480       .  S
C475        H480   1.084       .  S
C475        C476   1.360       .  D
C476        C829   1.486       .  S
C481        C482   1.530       .  S
C481        C487   1.541       .  S
C481        C485   1.532       .  S
C481        C769   1.538       .  S
C482        H489   1.087       .  S
C482        C483   1.362       .  D
C483        C484   1.543       .  S
C484        C488   1.542       .  S
C484        C486   1.546       .  S
C484        H490   1.110       .  S
C485        H491   1.087       .  S
C485        C486   1.366       .  D
C486        C545   1.481       .  S
C487        H492   1.081       .  S
C487        C488   1.368       .  D
C488        C800   1.474       .  S
C493        C494   1.557       .  S
C493        C499   1.537       .  S
C493        C497   1.543       .  S
C493        C820   1.538       .  S
C494        H501   1.081       .  S
C494        C495   1.370       .  D
C495        C496   1.538       .  S
C496        C500   1.527       .  S
C496        C498   1.538       .  S
C496        H502   1.111       .  S
C497        H503   1.086       .  S
C497        C498   1.367       .  D
C498        C532   1.479       .  S
C499        H504   1.087       .  S
C499        C500   1.356       .  D
C500        C780   1.467       .  S
In505       O507   2.241       .  S
In505       O508   2.231       .  S
In505       O516   2.235       .  S
In505       O510   2.262       .  S
In505       O512   2.259       .  S
In505       O513   2.237       .  S
In505       O514   2.234       .  S
In505       O517   2.215       .  S
C506        O512   1.266       .  A
C506        O514   1.259       .  A
O507        C515   1.263       .  A
O508        C515   1.261       .  A
C509        O516   1.261       .  A
C509        O510   1.265       .  A
C509        C740   1.492       .  S
C511        O513   1.264       .  A
C511        O517   1.260       .  A
C511        C749   1.468       .  S
C515       C1100   1.474       .  S
In518       O520   2.219       .  S
In518       O521   2.232       .  S
In518       O529   2.234       .  S
In518       O523   2.272       .  S
In518       O525   2.255       .  S
In518       O526   2.232       .  S
In518       O527   2.241       .  S
In518       O530   2.240       .  S
C519        O525   1.268       .  A
C519        O527   1.258       .  A
O520        C528   1.260       .  A
O521        C528   1.266       .  A
C522        O529   1.261       .  A
C522        O523   1.267       .  A
C522        C709   1.494       .  S
C524        O526   1.262       .  A
C524        O530   1.263       .  A
C524       C1320   1.476       .  S
C528        C760   1.475       .  S
In531       O533   2.236       .  S
In531       O534   2.252       .  S
In531       O542   2.247       .  S
In531       O536   2.283       .  S
In531       O538   2.267       .  S
In531       O539   2.238       .  S
In531       O540   2.239       .  S
In531       O543   2.240       .  S
C532        O538   1.264       .  A
C532        O540   1.259       .  A
O533        C541   1.261       .  A
O534        C541   1.260       .  A
C535        O542   1.256       .  A
C535        O536   1.262       .  A
C535        C720   1.488       .  S
C537        O539   1.262       .  A
C537        O543   1.262       .  A
C537       C1280   1.475       .  S
C541        C689   1.478       .  S
In544       O546   2.256       .  S
In544       O547   2.225       .  S
In544       O555   2.245       .  S
In544       O549   2.295       .  S
In544       O551   2.234       .  S
In544       O552   2.262       .  S
In544       O553   2.291       .  S
In544       O556   2.226       .  S
C545        O551   1.258       .  A
C545        O553   1.260       .  A
O546        C554   1.265       .  A
O547        C554   1.260       .  A
C548        O555   1.257       .  A
C548        O549   1.266       .  A
C548        C669   1.499       .  S
C550        O552   1.261       .  A
C550        O556   1.260       .  A
C550        C700   1.484       .  S
C554       C1200   1.487       .  S
In557       O559   2.233       .  S
In557       O560   2.238       .  S
In557       O568   2.230       .  S
In557       O562   2.282       .  S
In557       O564   2.281       .  S
In557       O565   2.235       .  S
In557       O566   2.234       .  S
In557       O569   2.256       .  S
C558        O564   1.265       .  A
C558        O566   1.255       .  A
O559        C567   1.261       .  A
O560        C567   1.260       .  A
C561        O568   1.258       .  A
C561        O562   1.267       .  A
C561        C629   1.496       .  S
C563        O565   1.259       .  A
C563        O569   1.262       .  A
C563       C1149   1.485       .  S
C567        C660   1.470       .  S
In570       O572   2.240       .  S
In570       O573   2.235       .  S
In570       O581   2.242       .  S
In570       O575   2.265       .  S
In570       O577   2.251       .  S
In570       O578   2.253       .  S
In570       O579   2.245       .  S
In570       O582   2.210       .  S
C571        O577   1.265       .  A
C571        O579   1.259       .  A
O572        C580   1.261       .  A
O573        C580   1.262       .  A
C574        O581   1.261       .  A
C574        O575   1.264       .  A
C574        C729   1.489       .  S
C576        O578   1.264       .  A
C576        O582   1.258       .  A
C576        C649   1.475       .  S
C580       C1229   1.477       .  S
In583       O585   2.210       .  S
In583       O586   2.250       .  S
In583       O594   2.235       .  S
In583       O588   2.274       .  S
In583       O590   2.262       .  S
In583       O591   2.244       .  S
In583       O592   2.257       .  S
In583       O595   2.235       .  S
C584        O590   1.265       .  A
C584        O592   1.258       .  A
O585        C593   1.261       .  A
O586        C593   1.263       .  A
C587        O594   1.261       .  A
C587        O588   1.266       .  A
C587        C640   1.494       .  S
C589        O591   1.262       .  A
C589        O595   1.261       .  A
C589       C1120   1.473       .  S
C593        C609   1.481       .  S
In596       O598   2.250       .  S
In596       O599   2.247       .  S
In596       O607   2.241       .  S
In596       O601   2.291       .  S
In596       O603   2.267       .  S
In596       O604   2.240       .  S
In596       O605   2.265       .  S
In596       O608   2.228       .  S
C597        O603   1.266       .  A
C597        O605   1.258       .  A
O598        C606   1.261       .  A
O599        C606   1.262       .  A
C600        O607   1.259       .  A
C600        O601   1.268       .  A
C600        C680   1.496       .  S
C602        O604   1.263       .  A
C602        O608   1.261       .  A
C602        C620   1.463       .  S
C606       C1360   1.485       .  S
C609        C610   1.416       .  A
C609        C614   1.406       .  A
C610        C611   1.401       .  A
C610       Br626   1.920       .  S
C611        C612   1.401       .  A
C611        H615   1.083       .  S
C612        C616   1.472   1_655  S
C612        C613   1.405       .  A
C613        C614   1.391       .  A
C613       Br625   1.921       .  S
C614        H617   1.083       .  S
C616        C618   1.402       .  A
C616        C622   1.407       .  A
C618        C619   1.396       .  A
C618        H623   1.084       .  S
C619        C620   1.406       .  A
C619       Br627   1.919       .  S
C620        C621   1.402       .  A
C621        C622   1.398       .  A
C621        H624   1.084       .  S
C622       Br628   1.919       .  S
C629        C630   1.421       .  A
C629        C634   1.410       .  A
C630        C631   1.401       .  A
C630       Br646   1.922       .  S
C631        C632   1.398       .  A
C631        H635   1.084       .  S
C632        C636   1.486       .  S
C632        C633   1.408       .  A
C633        C634   1.406       .  A
C633       Br645   1.918       .  S
C634        H637   1.083       .  S
C636        C638   1.404       .  A
C636        C642   1.405       .  A
C638        C639   1.406       .  A
C638        H643   1.083       .  S
C639        C640   1.417       .  A
C639       Br647   1.919       .  S
C640        C641   1.409       .  A
C641        C642   1.400       .  A
C641        H644   1.083       .  S
C642       Br648   1.918       .  S
C649        C650   1.414       .  A
C649        C654   1.406       .  A
C650        C651   1.393       .  A
C650       Br666   1.923       .  S
C651        C652   1.399       .  A
C651        H655   1.084       .  S
C652        C656   1.472       .  S
C652        C653   1.406       .  A
C653        C654   1.400       .  A
C653       Br665   1.918       .  S
C654        H657   1.083       .  S
C656        C658   1.401       .  A
C656        C662   1.406       .  A
C658        C659   1.397       .  A
C658        H663   1.084       .  S
C659        C660   1.412       .  A
C659       Br667   1.920       .  S
C660        C661   1.403       .  A
C661        C662   1.396       .  A
C661        H664   1.084       .  S
C662       Br668   1.919       .  S
C669        C670   1.419       .  A
C669        C674   1.408       .  A
C670        C671   1.404       .  A
C670       Br686   1.922       .  S
C671        C672   1.402       .  A
C671        H675   1.084       .  S
C672        C676   1.496       .  S
C672        C673   1.411       .  A
C673        C674   1.408       .  A
C673       Br685   1.917       .  S
C674        H677   1.083       .  S
C676        C678   1.402       .  A
C676        C682   1.412       .  A
C678        C679   1.404       .  A
C678        H683   1.083       .  S
C679        C680   1.418       .  A
C679       Br687   1.922       .  S
C680        C681   1.407       .  A
C681        C682   1.408       .  A
C681        H684   1.083       .  S
C682       Br688   1.918       .  S
C689        C690   1.414       .  A
C689        C694   1.404       .  A
C690        C691   1.402       .  A
C690       Br706   1.919       .  S
C691        C692   1.401       .  A
C691        H695   1.083       .  S
C692        C696   1.472       .  S
C692        C693   1.404       .  A
C693        C694   1.394       .  A
C693       Br705   1.918       .  S
C694        H697   1.082       .  S
C696        C698   1.402       .  A
C696        C702   1.403       .  A
C698        C699   1.404       .  A
C698        H703   1.083       .  S
C699        C700   1.418       .  A
C699       Br707   1.921       .  S
C700        C701   1.406       .  A
C701        C702   1.391       .  A
C701        H704   1.083       .  S
C702       Br708   1.921       .  S
C709        C710   1.416       .  A
C709        C714   1.410       .  A
C710        C711   1.406       .  A
C710       Br726   1.919       .  S
C711        C712   1.403       .  A
C711        H715   1.083       .  S
C712        C716   1.486       .  S
C712        C713   1.405       .  A
C713        C714   1.401       .  A
C713       Br725   1.919       .  S
C714        H717   1.083       .  S
C716        C718   1.401       .  A
C716        C722   1.408       .  A
C718        C719   1.402       .  A
C718        H723   1.083       .  S
C719        C720   1.416       .  A
C719       Br727   1.922       .  S
C720        C721   1.407       .  A
C721        C722   1.405       .  A
C721        H724   1.083       .  S
C722       Br728   1.917       .  S
C729        C730   1.416       .  A
C729        C734   1.408       .  A
C730        C731   1.404       .  A
C730       Br746   1.920       .  S
C731        C732   1.403       .  A
C731        H735   1.084       .  S
C732        C736   1.482       .  S
C732        C733   1.405       .  A
C733        C734   1.400       .  A
C733       Br745   1.918       .  S
C734        H737   1.083       .  S
C736        C738   1.402       .  A
C736        C742   1.404       .  A
C738        C739   1.404       .  A
C738        H743   1.083       .  S
C739        C740   1.417       .  A
C739       Br747   1.920       .  S
C740        C741   1.410       .  A
C741        C742   1.400       .  A
C741        H744   1.083       .  S
C742       Br748   1.918       .  S
C749        C750   1.412       .  A
C749        C754   1.403       .  A
C750        C751   1.395       .  A
C750       Br766   1.922       .  S
C751        C752   1.400       .  A
C751        H755   1.084       .  S
C752        C756   1.468   1_655  S
C752        C753   1.406       .  A
C753        C754   1.396       .  A
C753       Br765   1.919   1_655  S
C754        H757   1.084       .  S
C756        C758   1.399       .  A
C756        C762   1.404       .  A
C758        C759   1.394       .  A
C758        H763   1.084       .  S
C759        C760   1.416       .  A
C759       Br767   1.923       .  S
C760        C761   1.405       .  A
C761        C762   1.396       .  A
C761        H764   1.083       .  S
C762       Br768   1.918       .  S
C769        C770   1.426       .  A
C769        C774   1.413       .  A
C770        C771   1.399       .  A
C770       Br786   1.925       .  S
C771        C772   1.395       .  A
C771        H775   1.084       .  S
C772        C776   1.474       .  S
C772        C773   1.402       .  A
C773        C774   1.398       .  A
C773       Br785   1.919       .  S
C774        H777   1.075       .  S
C776        C778   1.402       .  A
C776        C782   1.406       .  A
C778        C779   1.396       .  A
C778        H783   1.083       .  S
C779        C780   1.405       .  A
C779       Br787   1.918       .  S
C780        C781   1.400       .  A
C781        C782   1.397       .  A
C781        H784   1.084       .  S
C782       Br788   1.910       .  S
C789        C790   1.423       .  A
C789        C794   1.412       .  A
C790        C791   1.407       .  A
C790       Br806   1.920       .  S
C791        C792   1.403   1_655  A
C791        H795   1.083       .  S
C792        C796   1.486       .  S
C792        C793   1.407   1_455  A
C793        C794   1.393       .  A
C793       Br805   1.924   1_655  S
C794        H797   1.079       .  S
C796        C798   1.406       .  A
C796        C802   1.410       .  A
C798        C799   1.401       .  A
C798        H803   1.083       .  S
C799        C800   1.406       .  A
C799       Br807   1.918       .  S
C800        C801   1.401       .  A
C801        C802   1.399       .  A
C801        H804   1.084       .  S
C802       Br808   1.919       .  S
C809        C810   1.422       .  A
C809        C814   1.415       .  A
C810        C811   1.397       .  A
C810       Br826   1.925       .  S
C811        C812   1.399   1_655  A
C811        H815   1.084   1_655  S
C812        C816   1.482       .  S
C812        C813   1.404   1_455  A
C813        C814   1.401       .  A
C813       Br825   1.919       .  S
C814        H817   1.075       .  S
C816        C818   1.397       .  A
C816        C822   1.405       .  A
C818        C819   1.398       .  A
C818        H823   1.084       .  S
C819        C820   1.425       .  A
C819       Br827   1.925       .  S
C820        C821   1.413       .  A
C821        C822   1.401       .  A
C821        H824   1.076       .  S
C822       Br828   1.918       .  S
C829        C830   1.408       .  A
C829        C834   1.402       .  A
C830        C831   1.404       .  A
C830       Br846   1.912       .  S
C831        C832   1.406       .  A
C831        H835   1.084       .  S
C832        C836   1.495       .  S
C832        C833   1.415       .  A
C833        C834   1.402       .  A
C833       Br845   1.919       .  S
C834        H837   1.084       .  S
C836        C838   1.404       .  A
C836        C842   1.412       .  A
C838        C839   1.405       .  A
C838        H843   1.084       .  S
C839        C840   1.413       .  A
C839       Br847   1.908       .  S
C840        C841   1.408       .  A
C841        C842   1.402       .  A
C841        H844   1.083       .  S
C842       Br848   1.921       .  S
C849        C850   1.418       .  A
C849        C854   1.406       .  A
C850        C851   1.391       .  A
C850       Br866   1.926       .  S
C851        C852   1.397       .  A
C851        H855   1.084       .  S
C852        C856   1.468   1_655  S
C852        C853   1.405       .  A
C853        C854   1.399       .  A
C853       Br865   1.917       .  S
C854        H857   1.083       .  S
C856        C858   1.399       .  A
C856        C862   1.406       .  A
C858        C859   1.394       .  A
C858        H863   1.084       .  S
C859        C860   1.410       .  A
C859       Br867   1.921       .  S
C860        C861   1.405       .  A
C861        C862   1.397       .  A
C861        H864   1.084       .  S
C862       Br868   1.919       .  S
C869        C870   1.414       .  A
C869        C874   1.408       .  A
C870        C871   1.405       .  A
C870       Br886   1.919       .  S
C871        C872   1.405       .  A
C871        H875   1.083       .  S
C872        C876   1.486       .  S
C872        C873   1.405       .  A
C873        C874   1.399       .  A
C873       Br885   1.918       .  S
C874        H877   1.083       .  S
C876        C878   1.404       .  A
C876        C882   1.407       .  A
C878        C879   1.405       .  A
C878        H883   1.083       .  S
C879        C880   1.414       .  A
C879       Br887   1.919       .  S
C880        C881   1.407       .  A
C881        C882   1.401       .  A
C881        H884   1.083       .  S
C882       Br888   1.919       .  S
C889        C890   1.408       .  A
C889        C894   1.403       .  A
C890        C891   1.399       .  A
C890       Br906   1.919       .  S
C891        C892   1.403       .  A
C891        H895   1.084       .  S
C892        C896   1.481       .  S
C892        C893   1.410       .  A
C893        C894   1.400       .  A
C893       Br905   1.921       .  S
C894        H897   1.084       .  S
C896        C898   1.404       .  A
C896        C902   1.408       .  A
C898        C899   1.402       .  A
C898        H903   1.083       .  S
C899        C900   1.414       .  A
C899       Br907   1.920       .  S
C900        C901   1.406       .  A
C901        C902   1.394       .  A
C901        H904   1.083       .  S
C902       Br908   1.920       .  S
C909        C910   1.417       .  A
C909        C914   1.407       .  A
C910        C911   1.401       .  A
C910       Br926   1.920       .  S
C911        C912   1.400       .  A
C911        H915   1.084       .  S
C912        C916   1.485       .  S
C912        C913   1.409       .  A
C913        C914   1.405       .  A
C913       Br925   1.918       .  S
C914        H917   1.083       .  S
C916        C918   1.404       .  A
C916        C922   1.404       .  A
C918        C919   1.408       .  A
C918        H923   1.083       .  S
C919        C920   1.417       .  A
C919       Br927   1.919       .  S
C920        C921   1.410       .  A
C921        C922   1.399       .  A
C921        H924   1.083       .  S
C922       Br928   1.919       .  S
C929        C930   1.409       .  A
C929        C934   1.402       .  A
C930        C931   1.397       .  A
C930       Br946   1.922       .  S
C931        C932   1.402       .  A
C931        H935   1.084       .  S
C932        C936   1.476   1_655  S
C932        C933   1.410       .  A
C933        C934   1.399       .  A
C933       Br945   1.920       .  S
C934        H937   1.084       .  S
C936        C938   1.400       .  A
C936        C942   1.406       .  A
C938        C939   1.396       .  A
C938        H943   1.083       .  S
C939        C940   1.416       .  A
C939       Br947   1.923       .  S
C940        C941   1.406       .  A
C941        C942   1.398       .  A
C941        H944   1.083       .  S
C942       Br948   1.918       .  S
C949        C950   1.417       .  A
C949        C954   1.409       .  A
C950        C951   1.407       .  A
C950       Br966   1.919       .  S
C951        C952   1.404       .  A
C951        H955   1.083       .  S
C952        C956   1.489       .  S
C952        C953   1.406       .  A
C953        C954   1.401       .  A
C953       Br965   1.919       .  S
C954        H957   1.083       .  S
C956        C958   1.405       .  A
C956        C962   1.406       .  A
C958        C959   1.406       .  A
C958        H963   1.083       .  S
C959        C960   1.415       .  A
C959       Br967   1.919       .  S
C960        C961   1.410       .  A
C961        C962   1.401       .  A
C961        H964   1.083       .  S
C962       Br968   1.918       .  S
C969        C970   1.419       .  A
C969        C974   1.408       .  A
C970        C971   1.400       .  A
C970       Br986   1.922       .  S
C971        C972   1.400       .  A
C971        H975   1.084       .  S
C972        C976   1.487       .  S
C972        C973   1.408       .  A
C973        C974   1.406       .  A
C973       Br985   1.917       .  S
C974        H977   1.083       .  S
C976        C978   1.404       .  A
C976        C982   1.406       .  A
C978        C979   1.408       .  A
C978        H983   1.083       .  S
C979        C980   1.418       .  A
C979       Br987   1.920       .  S
C980        C981   1.407       .  A
C981        C982   1.399       .  A
C981        H984   1.083       .  S
C982       Br988   1.919       .  S
C989        C990   1.405       .  A
C989        C994   1.402       .  A
C990        C991   1.395       .  A
C990      Br1006   1.919       .  S
C991        C992   1.402       .  A
C991        H995   1.084       .  S
C992        C996   1.468       .  S
C992        C993   1.406       .  A
C993        C994   1.397       .  A
C993      Br1005   1.919       .  S
C994        H997   1.084       .  S
C996        C998   1.400       .  A
C996       C1002   1.404       .  A
C998        C999   1.398       .  A
C998       H1003   1.084       .  S
C999       C1000   1.415       .  A
C999      Br1007   1.921       .  S
C1000      C1001   1.406       .  A
C1001      C1002   1.391       .  A
C1001      H1004   1.083       .  S
C1002     Br1008   1.920       .  S
C1009      C1010   1.423   1_556  A
C1009      C1014   1.413       .  A
C1010      C1011   1.404       .  A
C1010     Br1026   1.921       .  S
C1011      C1012   1.400   1_554  A
C1011      H1015   1.083       .  S
C1012      C1016   1.481   1_556  S
C1012      C1013   1.404       .  A
C1013      C1014   1.395       .  A
C1013     Br1025   1.922       .  S
C1014      H1017   1.078       .  S
C1016      C1018   1.402   1_554  A
C1016      C1022   1.404       .  A
C1018      C1019   1.406       .  A
C1018      H1023   1.083       .  S
C1019      C1020   1.422   1_556  A
C1019     Br1027   1.921       .  S
C1020      C1021   1.411       .  A
C1021      C1022   1.392       .  A
C1021      H1024   1.083       .  S
C1022     Br1028   1.921       .  S
C1029      C1030   1.419   1_556  A
C1029      C1034   1.412       .  A
C1030      C1031   1.407       .  A
C1030     Br1046   1.906       .  S
C1031      C1032   1.400   1_554  A
C1031      H1035   1.082       .  S
C1032      C1036   1.486   1_656  S
C1032      C1033   1.405       .  A
C1033      C1034   1.400       .  A
C1033     Br1045   1.920   1_655  S
C1034      H1037   1.083       .  S
C1036      C1038   1.402   1_554  A
C1036      C1042   1.405       .  A
C1038      C1039   1.407       .  A
C1038      H1043   1.083       .  S
C1039      C1040   1.417   1_556  A
C1039     Br1047   1.908       .  S
C1040      C1041   1.410       .  A
C1041      C1042   1.400       .  A
C1041      H1044   1.083       .  S
C1042     Br1048   1.918       .  S
C1049      C1050   1.408   1_554  A
C1049      C1054   1.404       .  A
C1050      C1051   1.402       .  A
C1050     Br1066   1.910       .  S
C1051      C1052   1.405   1_556  A
C1051      H1055   1.084       .  S
C1052      C1056   1.493   1_654  S
C1052      C1053   1.413       .  A
C1053      C1054   1.405       .  A
C1053     Br1065   1.918       .  S
C1054      H1057   1.084       .  S
C1056      C1058   1.406   1_556  A
C1056      C1062   1.409       .  A
C1058      C1059   1.408       .  A
C1058      H1063   1.084       .  S
C1059      C1060   1.415   1_554  A
C1059     Br1067   1.909       .  S
C1060      C1061   1.409       .  A
C1061      C1062   1.398       .  A
C1061      H1064   1.083       .  S
C1062     Br1068   1.921       .  S
C1069      C1070   1.423   1_556  A
C1069      C1074   1.412       .  A
C1070      C1071   1.395       .  A
C1070     Br1086   1.927       .  S
C1071      C1072   1.398   1_554  A
C1071      H1075   1.084       .  S
C1072      C1076   1.481       .  S
C1072      C1073   1.406       .  A
C1073      C1074   1.400       .  A
C1073     Br1085   1.920       .  S
C1074      H1077   1.076       .  S
C1076      C1078   1.399       .  A
C1076      C1082   1.405   1_556  A
C1078      C1079   1.398       .  A
C1078      H1083   1.084       .  S
C1079      C1080   1.423       .  A
C1079     Br1087   1.925       .  S
C1080      C1081   1.414   1_556  A
C1081      C1082   1.397       .  A
C1081      H1084   1.074       .  S
C1082     Br1088   1.921       .  S
C1089      C1090   1.414       .  A
C1089      C1094   1.404       .  A
C1090      C1091   1.400       .  A
C1090     Br1106   1.920       .  S
C1091      C1092   1.401       .  A
C1091      H1095   1.084       .  S
C1092      C1096   1.474       .  S
C1092      C1093   1.407       .  A
C1093      C1094   1.396       .  A
C1093     Br1105   1.920       .  S
C1094      H1097   1.083       .  S
C1096      C1098   1.401       .  A
C1096      C1102   1.406       .  A
C1098      C1099   1.398       .  A
C1098      H1103   1.084       .  S
C1099      C1100   1.413       .  A
C1099     Br1107   1.922       .  S
C1100      C1101   1.404       .  A
C1101      C1102   1.398       .  A
C1101      H1104   1.083       .  S
C1102     Br1108   1.919       .  S
C1109      C1110   1.416       .  A
C1109      C1114   1.405       .  A
C1110      C1111   1.401       .  A
C1110     Br1126   1.921       .  S
C1111      C1112   1.402       .  A
C1111      H1115   1.084       .  S
C1112      C1116   1.477       .  S
C1112      C1113   1.407       .  A
C1113      C1114   1.395       .  A
C1113     Br1125   1.921       .  S
C1114      H1117   1.083       .  S
C1116      C1118   1.400       .  A
C1116      C1122   1.408       .  A
C1118      C1119   1.397       .  A
C1118      H1123   1.084       .  S
C1119      C1120   1.411       .  A
C1119     Br1127   1.921       .  S
C1120      C1121   1.404       .  A
C1121      C1122   1.400       .  A
C1121      H1124   1.084       .  S
C1122     Br1128   1.918       .  S
C1129      C1130   1.416       .  A
C1129      C1134   1.408       .  A
C1130      C1131   1.393       .  A
C1130     Br1146   1.923       .  S
C1131      C1132   1.399       .  A
C1131      H1135   1.084       .  S
C1132      C1136   1.471   1_545  S
C1132      C1133   1.404       .  A
C1133      C1134   1.398       .  A
C1133     Br1145   1.918       .  S
C1134      H1137   1.083       .  S
C1136      C1138   1.400       .  A
C1136      C1142   1.410       .  A
C1138      C1139   1.394       .  A
C1138      H1143   1.084       .  S
C1139      C1140   1.407       .  A
C1139     Br1147   1.921       .  S
C1140      C1141   1.402       .  A
C1141      C1142   1.399       .  A
C1141      H1144   1.084       .  S
C1142     Br1148   1.919   1_565  S
C1149      C1150   1.414       .  A
C1149      C1154   1.409       .  A
C1150      C1151   1.399       .  A
C1150     Br1166   1.920       .  S
C1151      C1152   1.402       .  A
C1151      H1155   1.084       .  S
C1152      C1156   1.482       .  S
C1152      C1153   1.407       .  A
C1153      C1154   1.399       .  A
C1153     Br1165   1.920       .  S
C1154      H1157   1.083       .  S
C1156      C1158   1.404       .  A
C1156      C1162   1.411       .  A
C1158      C1159   1.401       .  A
C1158      H1163   1.084       .  S
C1159      C1160   1.410       .  A
C1159     Br1167   1.918       .  S
C1160      C1161   1.403       .  A
C1161      C1162   1.398       .  A
C1161      H1164   1.084       .  S
C1162     Br1168   1.922       .  S
C1169      C1170   1.415       .  A
C1169      C1174   1.407       .  A
C1170      C1171   1.404       .  A
C1170     Br1186   1.919       .  S
C1171      C1172   1.403       .  A
C1171      H1175   1.083       .  S
C1172      C1176   1.486       .  S
C1172      C1173   1.407       .  A
C1173      C1174   1.401       .  A
C1173     Br1185   1.919       .  S
C1174      H1177   1.083       .  S
C1176      C1178   1.403       .  A
C1176      C1182   1.406       .  A
C1178      C1179   1.404       .  A
C1178      H1183   1.083       .  S
C1179      C1180   1.415       .  A
C1179     Br1187   1.919       .  S
C1180      C1181   1.409       .  A
C1181      C1182   1.402       .  A
C1181      H1184   1.083       .  S
C1182     Br1188   1.919       .  S
C1189      C1190   1.411       .  A
C1189      C1194   1.401       .  A
C1190      C1191   1.401       .  A
C1190     Br1206   1.920       .  S
C1191      C1192   1.406       .  A
C1191      H1195   1.084       .  S
C1192      C1196   1.485       .  S
C1192      C1193   1.412       .  A
C1193      C1194   1.397       .  A
C1193     Br1205   1.920       .  S
C1194      H1197   1.084       .  S
C1196      C1198   1.401       .  A
C1196      C1202   1.409       .  A
C1198      C1199   1.397       .  A
C1198      H1203   1.084       .  S
C1199      C1200   1.417       .  A
C1199     Br1207   1.923       .  S
C1200      C1201   1.408       .  A
C1201      C1202   1.402       .  A
C1201      H1204   1.083       .  S
C1202     Br1208   1.919       .  S
C1209      C1210   1.412       .  A
C1209      C1214   1.405       .  A
C1210      C1211   1.392       .  A
C1210     Br1226   1.921       .  S
C1211      C1212   1.398       .  A
C1211      H1215   1.084       .  S
C1212      C1216   1.467       .  S
C1212      C1213   1.404       .  A
C1213      C1214   1.399       .  A
C1213     Br1225   1.917       .  S
C1214      H1217   1.083       .  S
C1216      C1218   1.400       .  A
C1216      C1222   1.405       .  A
C1218      C1219   1.397       .  A
C1218      H1223   1.084       .  S
C1219      C1220   1.410       .  A
C1219     Br1227   1.920       .  S
C1220      C1221   1.403       .  A
C1221      C1222   1.396       .  A
C1221      H1224   1.084       .  S
C1222     Br1228   1.919       .  S
C1229      C1230   1.414       .  A
C1229      C1234   1.404       .  A
C1230      C1231   1.399       .  A
C1230     Br1246   1.919       .  S
C1231      C1232   1.400       .  A
C1231      H1235   1.084       .  S
C1232      C1236   1.472       .  S
C1232      C1233   1.408       .  A
C1233      C1234   1.394       .  A
C1233     Br1245   1.922       .  S
C1234      H1237   1.083       .  S
C1236      C1238   1.402       .  A
C1236      C1242   1.404       .  A
C1238      C1239   1.398       .  A
C1238      H1243   1.084       .  S
C1239      C1240   1.412       .  A
C1239     Br1247   1.921       .  S
C1240      C1241   1.404       .  A
C1241      C1242   1.394       .  A
C1241      H1244   1.084       .  S
C1242     Br1248   1.919       .  S
C1249      C1250   1.421       .  A
C1249      C1254   1.407       .  A
C1250      C1251   1.401       .  A
C1250     Br1266   1.922       .  S
C1251      C1252   1.400       .  A
C1251      H1255   1.084       .  S
C1252      C1256   1.486       .  S
C1252      C1253   1.409       .  A
C1253      C1254   1.402       .  A
C1253     Br1265   1.919       .  S
C1254      H1257   1.083       .  S
C1256      C1258   1.405       .  A
C1256      C1262   1.406       .  A
C1258      C1259   1.406       .  A
C1258      H1263   1.083       .  S
C1259      C1260   1.416       .  A
C1259     Br1267   1.920       .  S
C1260      C1261   1.409       .  A
C1261      C1262   1.397       .  A
C1261      H1264   1.083       .  S
C1262     Br1268   1.920       .  S
C1269      C1270   1.411       .  A
C1269      C1274   1.404       .  A
C1270      C1271   1.396       .  A
C1270     Br1286   1.920       .  S
C1271      C1272   1.401       .  A
C1271      H1275   1.084       .  S
C1272      C1276   1.478       .  S
C1272      C1273   1.409       .  A
C1273      C1274   1.401       .  A
C1273     Br1285   1.919       .  S
C1274      H1277   1.084       .  S
C1276      C1278   1.402       .  A
C1276      C1282   1.409       .  A
C1278      C1279   1.401       .  A
C1278      H1283   1.083       .  S
C1279      C1280   1.411       .  A
C1279     Br1287   1.919       .  S
C1280      C1281   1.403       .  A
C1281      C1282   1.396       .  A
C1281      H1284   1.084       .  S
C1282     Br1288   1.921       .  S
C1289      C1290   1.408       .  A
C1289      C1294   1.401       .  A
C1290      C1291   1.396       .  A
C1290     Br1306   1.920       .  S
C1291      C1292   1.402       .  A
C1291      H1295   1.083       .  S
C1292      C1296   1.471       .  S
C1292      C1293   1.406       .  A
C1293      C1294   1.395       .  A
C1293     Br1305   1.919       .  S
C1294      H1297   1.084       .  S
C1296      C1298   1.400       .  A
C1296      C1302   1.406       .  A
C1298      C1299   1.401       .  A
C1298      H1303   1.083       .  S
C1299      C1300   1.417       .  A
C1299     Br1307   1.921       .  S
C1300      C1301   1.405       .  A
C1301      C1302   1.391       .  A
C1301      H1304   1.083       .  S
C1302     Br1308   1.921       .  S
C1309      C1310   1.416       .  A
C1309      C1314   1.407       .  A
C1310      C1311   1.396       .  A
C1310     Br1326   1.923       .  S
C1311      C1312   1.400       .  A
C1311      H1315   1.084       .  S
C1312      C1316   1.480       .  S
C1312      C1313   1.407       .  A
C1313      C1314   1.401       .  A
C1313     Br1325   1.919       .  S
C1314      H1317   1.083       .  S
C1316      C1318   1.403       .  A
C1316      C1322   1.410       .  A
C1318      C1319   1.399       .  A
C1318      H1323   1.084       .  S
C1319      C1320   1.411       .  A
C1319     Br1327   1.920       .  S
C1320      C1321   1.403       .  A
C1321      C1322   1.397       .  A
C1321      H1324   1.084       .  S
C1322     Br1328   1.921       .  S
C1329      C1330   1.417       .  A
C1329      C1334   1.406       .  A
C1330      C1331   1.403       .  A
C1330     Br1346   1.922       .  S
C1331      C1332   1.402       .  A
C1331      H1335   1.084       .  S
C1332      C1336   1.492       .  S
C1332      C1333   1.411       .  A
C1333      C1334   1.406       .  A
C1333     Br1345   1.918       .  S
C1334      H1337   1.083       .  S
C1336      C1338   1.402       .  A
C1336      C1342   1.411       .  A
C1338      C1339   1.401       .  A
C1338      H1343   1.084       .  S
C1339      C1340   1.417       .  A
C1339     Br1347   1.921       .  S
C1340      C1341   1.408       .  A
C1341      C1342   1.407       .  A
C1341      H1344   1.083       .  S
C1342     Br1348   1.918       .  S
C1349      C1350   1.411       .  A
C1349      C1354   1.404       .  A
C1350      C1351   1.400       .  A
C1350     Br1366   1.921       .  S
C1351      C1352   1.402       .  A
C1351      H1355   1.084       .  S
C1352      C1356   1.479       .  S
C1352      C1353   1.407       .  A
C1353      C1354   1.401       .  A
C1353     Br1365   1.918       .  S
C1354      H1357   1.083       .  S
C1356      C1358   1.401       .  A
C1356      C1362   1.406       .  A
C1358      C1359   1.403       .  A
C1358      H1363   1.083       .  S
C1359      C1360   1.416       .  A
C1359     Br1367   1.920       .  S
C1360      C1361   1.406       .  A
C1361      C1362   1.398       .  A
C1361      H1364   1.083       .  S
C1362     Br1368   1.919       .  S
C1369      C1370   1.418       .  A
C1369      C1374   1.410       .  A
C1370      C1371   1.407       .  A
C1370     Br1386   1.919       .  S
C1371      C1372   1.404       .  A
C1371      H1375   1.083       .  S
C1372      C1376   1.487       .  S
C1372      C1373   1.405       .  A
C1373      C1374   1.400       .  A
C1373     Br1385   1.918       .  S
C1374      H1377   1.083       .  S
C1376      C1378   1.400       .  A
C1376      C1382   1.407       .  A
C1378      C1379   1.404       .  A
C1378      H1383   1.084       .  S
C1379      C1380   1.421       .  A
C1379     Br1387   1.922       .  S
C1380      C1381   1.409       .  A
C1381      C1382   1.404       .  A
C1381      H1384   1.083       .  S
C1382     Br1388   1.917       .  S
C1389      C1390   1.416       .  A
C1389      C1394   1.405       .  A
C1390      C1391   1.401       .  A
C1390     Br1406   1.920       .  S
C1391      C1392   1.401   1_565  A
C1391      H1395   1.084       .  S
C1392      C1396   1.475       .  S
C1392      C1393   1.407   1_545  A
C1393      C1394   1.394       .  A
C1393     Br1405   1.923   1_565  S
C1394      H1397   1.083       .  S
C1396      C1398   1.403       .  A
C1396      C1402   1.408       .  A
C1398      C1399   1.396       .  A
C1398      H1403   1.083       .  S
C1399      C1400   1.405       .  A
C1399     Br1407   1.920       .  S
C1400      C1401   1.402       .  A
C1401      C1402   1.398       .  A
C1401      H1404   1.083       .  S
C1402     Br1408   1.919       .  S
C1409      C1410   1.415       .  A
C1409      C1414   1.409       .  A
C1410      C1411   1.399       .  A
C1410     Br1426   1.921       .  S
C1411      C1412   1.403       .  A
C1411      H1415   1.084       .  S
C1412      C1416   1.492       .  S
C1412      C1413   1.407       .  A
C1413      C1414   1.406       .  A
C1413     Br1425   1.911       .  S
C1414      H1417   1.083       .  S
C1416      C1418   1.404       .  A
C1416      C1422   1.409       .  A
C1418      C1419   1.403       .  A
C1418      H1423   1.083       .  S
C1419      C1420   1.410       .  A
C1419     Br1427   1.918       .  S
C1420      C1421   1.399       .  A
C1421      C1422   1.401       .  A
C1421      H1424   1.084       .  S
C1422     Br1428   1.903       .  S
C1429      C1430   1.423       .  A
C1429      C1434   1.415       .  A
C1430      C1431   1.396       .  A
C1430     Br1446   1.925       .  S
C1431      C1432   1.397   1_565  A
C1431      H1435   1.084   1_565  S
C1432      C1436   1.480       .  S
C1432      C1433   1.404   1_545  A
C1433      C1434   1.402       .  A
C1433     Br1445   1.919   1_565  S
C1434      H1437   1.076       .  S
C1436      C1438   1.400       .  A
C1436      C1442   1.402       .  A
C1438      C1439   1.404       .  A
C1438      H1443   1.083       .  S
C1439      C1440   1.423       .  A
C1439     Br1447   1.921       .  S
C1440      C1441   1.416       .  A
C1441      C1442   1.394       .  A
C1441      H1444   1.073       .  S
C1442     Br1448   1.923       .  S
C1449      C1450   1.423       .  A
C1449      C1454   1.414       .  A
C1450      C1451   1.397       .  A
C1450     Br1466   1.926       .  S
C1451      C1452   1.399       .  A
C1451      H1455   1.084       .  S
C1452      C1456   1.484   1_565  S
C1452      C1453   1.405       .  A
C1453      C1454   1.402       .  A
C1453     Br1465   1.919       .  S
C1454      H1457   1.076       .  S
C1456      C1458   1.400       .  A
C1456      C1462   1.405       .  A
C1458      C1459   1.401       .  A
C1458      H1463   1.084       .  S
C1459      C1460   1.424       .  A
C1459     Br1467   1.925       .  S
C1460      C1461   1.414       .  A
C1461      C1462   1.399       .  A
C1461      H1464   1.074       .  S
C1462     Br1468   1.921       .  S
C1469      C1470   1.417       .  A
C1469      C1474   1.410       .  A
C1470      C1471   1.406       .  A
C1470     Br1486   1.908       .  S
C1471      C1472   1.403       .  A
C1471      H1475   1.081       .  S
C1472      C1476   1.491       .  S
C1472      C1473   1.408       .  A
C1473      C1474   1.396       .  A
C1473     Br1485   1.922       .  S
C1474      H1477   1.083       .  S
C1476      C1478   1.405       .  A
C1476      C1482   1.414       .  A
C1478      C1479   1.399       .  A
C1478      H1483   1.084       .  S
C1479      C1480   1.406       .  A
C1479     Br1487   1.915       .  S
C1480      C1481   1.403       .  A
C1481      C1482   1.403       .  A
C1481      H1484   1.084       .  S
C1482     Br1488   1.919       .  S
C1489      C1490   1.414       .  A
C1489      C1494   1.406       .  A
C1490      C1491   1.394       .  A
C1490     Br1506   1.923       .  S
C1491      C1492   1.399       .  A
C1491      H1495   1.084       .  S
C1492      C1496   1.475       .  S
C1492      C1493   1.406       .  A
C1493      C1494   1.400       .  A
C1493     Br1505   1.918       .  S
C1494      H1497   1.083       .  S
C1496      C1498   1.399       .  A
C1496      C1502   1.408       .  A
C1498      C1499   1.397       .  A
C1498      H1503   1.084       .  S
C1499      C1500   1.415       .  A
C1499     Br1507   1.921       .  S
C1500      C1501   1.405       .  A
C1501      C1502   1.398       .  A
C1501      H1504   1.083       .  S
C1502     Br1508   1.921       .  S
C1509      C1510   1.416       .  A
C1509      C1514   1.407       .  A
C1510      C1511   1.403       .  A
C1510     Br1526   1.920       .  S
C1511      C1512   1.403       .  A
C1511      H1515   1.084       .  S
C1512      C1516   1.487       .  S
C1512      C1513   1.409       .  A
C1513      C1514   1.401       .  A
C1513     Br1525   1.919       .  S
C1514      H1517   1.083       .  S
C1516      C1518   1.402       .  A
C1516      C1522   1.410       .  A
C1518      C1519   1.400       .  A
C1518      H1523   1.084       .  S
C1519      C1520   1.413       .  A
C1519     Br1527   1.921       .  S
C1520      C1521   1.406       .  A
C1521      C1522   1.404       .  A
C1521      H1524   1.083       .  S
C1522     Br1528   1.919       .  S
C1529      C1530   1.415       .  A
C1529      C1534   1.407       .  A
C1530      C1531   1.399       .  A
C1530     Br1546   1.920       .  S
C1531      C1532   1.401       .  A
C1531      H1535   1.084       .  S
C1532      C1536   1.476       .  S
C1532      C1533   1.409       .  A
C1533      C1534   1.396       .  A
C1533     Br1545   1.925       .  S
C1534      H1537   1.083       .  S
C1536      C1538   1.403       .  A
C1536      C1542   1.407       .  A
C1538      C1539   1.394       .  A
C1538      H1543   1.083       .  S
C1539      C1540   1.407       .  A
C1539     Br1547   1.922       .  S
C1540      C1541   1.403       .  A
C1541      C1542   1.398       .  A
C1541      H1544   1.084       .  S
C1542     Br1548   1.918       .  S
C1549      C1550   1.415       .  A
C1549      C1554   1.405       .  A
C1550      C1551   1.403       .  A
C1550     Br1566   1.920       .  S
C1551      C1552   1.402       .  A
C1551      H1555   1.083       .  S
C1552      C1556   1.478       .  S
C1552      C1553   1.407       .  A
C1553      C1554   1.396       .  A
C1553     Br1565   1.920       .  S
C1554      H1557   1.083       .  S
C1556      C1558   1.401       .  A
C1556      C1562   1.408       .  A
C1558      C1559   1.398       .  A
C1558      H1563   1.084       .  S
C1559      C1560   1.410       .  A
C1559     Br1567   1.921       .  S
C1560      C1561   1.405       .  A
C1561      C1562   1.402       .  A
C1561      H1564   1.083       .  S
C1562     Br1568   1.919       .  S
C1569      C1570   1.413       .  A
C1569      C1574   1.407       .  A
C1570      C1571   1.402       .  A
C1570     Br1586   1.920       .  S
C1571      C1572   1.403       .  A
C1571      H1575   1.083       .  S
C1572      C1576   1.492       .  S
C1572      C1573   1.412       .  A
C1573      C1574   1.405       .  A
C1573     Br1585   1.920       .  S
C1574      H1577   1.083       .  S
C1576      C1578   1.407       .  A
C1576      C1582   1.410       .  A
C1578      C1579   1.406       .  A
C1578      H1583   1.083       .  S
C1579      C1580   1.412       .  A
C1579     Br1587   1.918       .  S
C1580      C1581   1.407       .  A
C1581      C1582   1.401       .  A
C1581      H1584   1.084       .  S
C1582     Br1588   1.920       .  S
C1589      C1590   1.412       .  A
C1589      C1594   1.403       .  A
C1590      C1591   1.403       .  A
C1590     Br1606   1.919       .  S
C1591      C1592   1.404       .  A
C1591      H1595   1.083       .  S
C1592      C1596   1.480       .  S
C1592      C1593   1.408       .  A
C1593      C1594   1.396       .  A
C1593     Br1605   1.921       .  S
C1594      H1597   1.084       .  S
C1596      C1598   1.400       .  A
C1596      C1602   1.409       .  A
C1598      C1599   1.397       .  A
C1598      H1603   1.083       .  S
C1599      C1600   1.412       .  A
C1599     Br1607   1.920       .  S
C1600      C1601   1.406       .  A
C1601      C1602   1.403       .  A
C1601      H1604   1.083       .  S
C1602     Br1608   1.919       .  S
C1609      C1610   1.416       .  A
C1609      C1614   1.406       .  A
C1610      C1611   1.400       .  A
C1610     Br1626   1.920       .  S
C1611      C1612   1.400       .  A
C1611      H1615   1.084       .  S
C1612      C1616   1.469   1_565  S
C1612      C1613   1.403       .  A
C1613      C1614   1.392       .  A
C1613     Br1625   1.921   1_565  S
C1614      H1617   1.082       .  S
C1616      C1618   1.401       .  A
C1616      C1622   1.407       .  A
C1618      C1619   1.396       .  A
C1618      H1623   1.084       .  S
C1619      C1620   1.406       .  A
C1619     Br1627   1.916       .  S
C1620      C1621   1.400       .  A
C1621      C1622   1.396       .  A
C1621      H1624   1.084       .  S
C1622     Br1628   1.919       .  S
C1629      C1630   1.413       .  A
C1629      C1634   1.407       .  A
C1630      C1631   1.396       .  A
C1630     Br1646   1.922       .  S
C1631      C1632   1.400       .  A
C1631      H1635   1.084       .  S
C1632      C1636   1.477       .  S
C1632      C1633   1.407       .  A
C1633      C1634   1.402       .  A
C1633     Br1645   1.917       .  S
C1634      H1637   1.083       .  S
C1636      C1638   1.401       .  A
C1636      C1642   1.409       .  A
C1638      C1639   1.399       .  A
C1638      H1643   1.084       .  S
C1639      C1640   1.412       .  A
C1639     Br1647   1.921       .  S
C1640      C1641   1.404       .  A
C1641      C1642   1.400       .  A
C1641      H1644   1.083       .  S
C1642     Br1648   1.920       .  S
C1649      C1650   1.415       .  A
C1649      C1654   1.406       .  A
C1650      C1651   1.403       .  A
C1650     Br1666   1.919       .  S
C1651      C1652   1.402       .  A
C1651      H1655   1.083       .  S
C1652      C1656   1.479       .  S
C1652      C1653   1.406       .  A
C1653      C1654   1.398       .  A
C1653     Br1665   1.919       .  S
C1654      H1657   1.083       .  S
C1656      C1658   1.404       .  A
C1656      C1662   1.406       .  A
C1658      C1659   1.403       .  A
C1658      H1663   1.084       .  S
C1659      C1660   1.413       .  A
C1659     Br1667   1.919       .  S
C1660      C1661   1.404       .  A
C1661      C1662   1.397       .  A
C1661      H1664   1.084       .  S
C1662     Br1668   1.918       .  S
C1669      C1670   1.417       .  A
C1669      C1674   1.411       .  A
C1670      C1671   1.407       .  A
C1670     Br1686   1.919       .  S
C1671      C1672   1.404       .  A
C1671      H1675   1.083       .  S
C1672      C1676   1.486       .  S
C1672      C1673   1.404       .  A
C1673      C1674   1.399       .  A
C1673     Br1685   1.918       .  S
C1674      H1677   1.083       .  S
C1676      C1678   1.402       .  A
C1676      C1682   1.408       .  A
C1678      C1679   1.402       .  A
C1678      H1683   1.083       .  S
C1679      C1680   1.415       .  A
C1679     Br1687   1.921       .  S
C1680      C1681   1.406       .  A
C1681      C1682   1.404       .  A
C1681      H1684   1.083       .  S
C1682     Br1688   1.917       .  S
C1689      C1690   1.417       .  A
C1689      C1694   1.408       .  A
C1690      C1691   1.394       .  A
C1690     Br1706   1.923       .  S
C1691      C1692   1.398       .  A
C1691      H1695   1.084       .  S
C1692      C1696   1.475       .  S
C1692      C1693   1.406       .  A
C1693      C1694   1.401       .  A
C1693     Br1705   1.918       .  S
C1694      H1697   1.083       .  S
C1696      C1698   1.402       .  A
C1696      C1702   1.410       .  A
C1698      C1699   1.396       .  A
C1698      H1703   1.084       .  S
C1699      C1700   1.409       .  A
C1699     Br1707   1.921       .  S
C1700      C1701   1.402       .  A
C1701      C1702   1.398       .  A
C1701      H1704   1.084       .  S
C1702     Br1708   1.918       .  S
C1709      C1710   1.412       .  A
C1709      C1714   1.405       .  A
C1710      C1711   1.401       .  A
C1710     Br1726   1.919       .  S
C1711      C1712   1.402       .  A
C1711      H1715   1.084       .  S
C1712      C1716   1.476       .  S
C1712      C1713   1.406       .  A
C1713      C1714   1.398       .  A
C1713     Br1725   1.920       .  S
C1714      H1717   1.083       .  S
C1716      C1718   1.399       .  A
C1716      C1722   1.406       .  A
C1718      C1719   1.397       .  A
C1718      H1723   1.084       .  S
C1719      C1720   1.416       .  A
C1719     Br1727   1.922       .  S
C1720      C1721   1.406       .  A
C1721      C1722   1.401       .  A
C1721      H1724   1.083       .  S
C1722     Br1728   1.917       .  S
C1729      C1730   1.414       .  A
C1729      C1734   1.405       .  A
C1730      C1731   1.402       .  A
C1730     Br1746   1.921       .  S
C1731      C1732   1.404       .  A
C1731      H1735   1.084       .  S
C1732      C1736   1.491       .  S
C1732      C1733   1.411       .  A
C1733      C1734   1.404       .  A
C1733     Br1745   1.918       .  S
C1734      H1737   1.083       .  S
C1736      C1738   1.404       .  A
C1736      C1742   1.408       .  A
C1738      C1739   1.404       .  A
C1738      H1743   1.083       .  S
C1739      C1740   1.416       .  A
C1739     Br1747   1.919       .  S
C1740      C1741   1.409       .  A
C1741      C1742   1.402       .  A
C1741      H1744   1.083       .  S
C1742     Br1748   1.919       .  S
C1749      C1750   1.410       .  A
C1749      C1754   1.403       .  A
C1750      C1751   1.401       .  A
C1750     Br1766   1.919       .  S
C1751      C1752   1.403       .  A
C1751      H1755   1.083       .  S
C1752      C1756   1.473       .  S
C1752      C1753   1.405       .  A
C1753      C1754   1.393       .  A
C1753     Br1765   1.920       .  S
C1754      H1757   1.084       .  S
C1756      C1758   1.398       .  A
C1756      C1762   1.406       .  A
C1758      C1759   1.397       .  A
C1758      H1763   1.084       .  S
C1759      C1760   1.416       .  A
C1759     Br1767   1.922       .  S
C1760      C1761   1.406       .  A
C1761      C1762   1.398       .  A
C1761      H1764   1.083       .  S
C1762     Br1768   1.919       .  S
C1769      C1770   1.415       .  A
C1769      C1774   1.408       .  A
C1770      C1771   1.404       .  A
C1770     Br1786   1.919       .  S
C1771      C1772   1.403       .  A
C1771      H1775   1.084       .  S
C1772      C1776   1.482       .  S
C1772      C1773   1.406       .  A
C1773      C1774   1.399       .  A
C1773     Br1785   1.919       .  S
C1774      H1777   1.083       .  S
C1776      C1778   1.403       .  A
C1776      C1782   1.405       .  A
C1778      C1779   1.405       .  A
C1778      H1783   1.083       .  S
C1779      C1780   1.416       .  A
C1779     Br1787   1.919       .  S
C1780      C1781   1.410       .  A
C1781      C1782   1.398       .  A
C1781      H1784   1.083       .  S
C1782     Br1788   1.921       .  S
C1789      C1790   1.412       .  A
C1789      C1794   1.403       .  A
C1790      C1791   1.397       .  A
C1790     Br1806   1.922       .  S
C1791      C1792   1.402       .  A
C1791      H1795   1.084       .  S
C1792      C1796   1.473   1_565  S
C1792      C1793   1.408       .  A
C1793      C1794   1.395       .  A
C1793     Br1805   1.919   1_565  S
C1794      H1797   1.083       .  S
C1796      C1798   1.399       .  A
C1796      C1802   1.406       .  A
C1798      C1799   1.392       .  A
C1798      H1803   1.084       .  S
C1799      C1800   1.413       .  A
C1799     Br1807   1.924       .  S
C1800      C1801   1.406       .  A
C1801      C1802   1.401       .  A
C1801      H1804   1.083       .  S
C1802     Br1808   1.918       .  S
C1809      C1810   1.424       .  A
C1809      C1814   1.414   1_556  A
C1810      C1811   1.407       .  A
C1810     Br1826   1.922       .  S
C1811      C1812   1.401       .  A
C1811      H1815   1.084       .  S
C1812      C1816   1.476       .  S
C1812      C1813   1.400   1_556  A
C1813      C1814   1.388       .  A
C1813     Br1825   1.924       .  S
C1814      H1817   1.083       .  S
C1816      C1818   1.396       .  A
C1816      C1822   1.402   1_556  A
C1818      C1819   1.397       .  A
C1818      H1823   1.084       .  S
C1819      C1820   1.425       .  A
C1819     Br1827   1.923       .  S
C1820      C1821   1.417   1_556  A
C1821      C1822   1.401       .  A
C1821      H1824   1.075       .  S
C1822     Br1828   1.919       .  S
C1829      C1830   1.403   1_556  A
C1829      C1834   1.401       .  A
C1830      C1831   1.401       .  A
C1830     Br1846   1.914       .  S
C1831      C1832   1.408   1_554  A
C1831      H1835   1.083       .  S
C1832      C1836   1.500   1_566  S
C1832      C1833   1.418       .  A
C1833      C1834   1.405       .  A
C1833     Br1845   1.920       .  S
C1834      H1837   1.084       .  S
C1836      C1838   1.408   1_554  A
C1836      C1842   1.413       .  A
C1838      C1839   1.408       .  A
C1838      H1843   1.080       .  S
C1839      C1840   1.411   1_556  A
C1839     Br1847   1.909       .  S
C1840      C1841   1.407       .  A
C1841      C1842   1.396       .  A
C1841      H1844   1.083       .  S
C1842     Br1848   1.923       .  S
C1849      C1850   1.409       .  A
C1849      C1854   1.400   1_554  A
C1850      C1851   1.403       .  A
C1850     Br1866   1.919       .  S
C1851      C1852   1.406   1_565  A
C1851      H1855   1.084   1_565  S
C1852      C1856   1.491   1_554  S
C1852      C1853   1.412   1_544  A
C1853      C1854   1.401       .  A
C1853     Br1865   1.912       .  S
C1854      H1857   1.084       .  S
C1856      C1858   1.402       .  A
C1856      C1862   1.409   1_556  A
C1858      C1859   1.399       .  A
C1858      H1863   1.084       .  S
C1859      C1860   1.416       .  A
C1859     Br1867   1.918       .  S
C1860      C1861   1.408   1_556  A
C1861      C1862   1.407       .  A
C1861      H1864   1.083       .  S
C1862     Br1868   1.915       .  S
C1869      C1870   1.424   1_554  A
C1869      C1874   1.413       .  A
C1870      C1871   1.406       .  A
C1870     Br1886   1.922       .  S
C1871      C1872   1.401   1_556  A
C1871      H1875   1.083       .  S
C1872      C1876   1.481   1_554  S
C1872      C1873   1.403       .  A
C1873      C1874   1.394       .  A
C1873     Br1885   1.923       .  S
C1874      H1877   1.075       .  S
C1876      C1878   1.399       .  A
C1876      C1882   1.404   1_556  A
C1878      C1879   1.398       .  A
C1878      H1883   1.084       .  S
C1879      C1880   1.423       .  A
C1879     Br1887   1.925       .  S
C1880      C1881   1.415   1_556  A
C1881      C1882   1.402       .  A
C1881      H1884   1.076       .  S
C1882     Br1888   1.919       .  S
