geometry optimzed in LAMMPS
_audit_creation_date              2020-11-30 
_audit_creation_method            'lammps2cif' 
_symmetry_space_group_name_H-M    'P1' 
_symmetry_Int_Tables_number       1 
_symmetry_cell_setting            triclinic 
loop_ 
_symmetry_equiv_pos_as_xyz 
  x,y,z 
_cell_length_a                    56.6134335 
_cell_length_b                    56.50109886430277 
_cell_length_c                    56.553010277660356 
_cell_angle_alpha                 89.96101393138892 
_cell_angle_beta                  90.10947969520674 
_cell_angle_gamma                 89.96422433663275 
loop_ 
_atom_site_label 
_atom_site_type_symbol 
_atom_site_fract_x 
_atom_site_fract_y 
_atom_site_fract_z 
_atom_site_charge 
Fe1        Fe  0.82605355  0.87008642  0.62932450     1.65800
Fe2        Fe  0.86986276  0.86889672  0.67054381     1.73200
Fe3        Fe  0.86776605  0.82668817  0.62746872     1.54400
O4          O  0.83501231  0.81178768  0.62176321    -0.81400
O5          O  0.90295788  0.86889993  0.65492330    -0.79700
O6          O  0.80774248  0.83871612  0.63078981    -0.83900
O7          O  0.83549505  0.86382077  0.59460134    -0.78700
O8          O  0.86856765  0.80868674  0.65916451    -0.80500
O9          O  0.86530046  0.90342880  0.65877249    -0.83300
C10         C  0.85212815  0.85360043  0.58358930     0.97500
C11         C  0.81376097  0.81769747  0.62574682     1.04900
O12         O  0.85468416  0.85530049  0.64236956    -1.12200
O13         O  0.83853337  0.86987719  0.68934613    -0.74700
O14         O  0.81170846  0.87827955  0.66188802    -0.78200
O15         O  0.86784894  0.84148312  0.59408268    -0.78900
C16         C  0.81767157  0.87549276  0.68332387     0.96400
O17         O  0.84193471  0.90283958  0.62712562    -0.76800
O18         O  0.87587830  0.83631273  0.68617782    -0.82000
C19         C  0.91332713  0.85437512  0.64124522     0.99000
C20         C  0.87278319  0.81483939  0.68031325     1.04900
O21         O  0.90235542  0.83756127  0.63125203    -0.77600
C22         C  0.85529547  0.91382921  0.64148808     1.03200
Fe23       Fe  0.63489085  0.82885079  0.85992659     1.65800
Fe24       Fe  0.67802532  0.87098348  0.85948192     1.73200
Fe25       Fe  0.63447197  0.87213191  0.81747428     1.54400
O26         O  0.62847038  0.84003096  0.80075753    -0.81400
O27         O  0.66386233  0.90453539  0.86092227    -0.79700
O28         O  0.63259877  0.81183233  0.82785823    -0.83900
O29         O  0.60083996  0.84140968  0.85700139    -0.78700
O30         O  0.66625820  0.87380655  0.79921950    -0.80500
O31         O  0.66708131  0.86611565  0.89384243    -0.83300
C32         C  0.59027854  0.85825146  0.84655485     0.97500
C33         C  0.62953712  0.81834927  0.80660138     1.04900
O34         O  0.64905010  0.85739362  0.84565438    -1.12200
O35         O  0.69534253  0.83888367  0.85922378    -0.74700
O36         O  0.66703079  0.81213758  0.86464135    -0.78200
O37         O  0.60084794  0.87211672  0.83234584    -0.78900
C38         C  0.68863128  0.81773811  0.86261535     0.96400
O39         O  0.63571829  0.84250545  0.89372976    -0.76800
O40         O  0.69345898  0.87771771  0.82724062    -0.82000
C41         C  0.65016798  0.91586878  0.84720843     0.99000
C42         C  0.68752643  0.87716569  0.80564679     1.04900
O43         O  0.63908674  0.90614679  0.83023083    -0.77600
C44         C  0.65047470  0.85553292  0.90447118     1.03200
Fe45       Fe  0.87062473  0.63906911  0.82041693     1.65800
Fe46       Fe  0.86821103  0.68028733  0.86465314     1.73200
Fe47       Fe  0.82588841  0.63718821  0.86100764     1.54400
O48         O  0.81120514  0.63268568  0.82798418    -0.81400
O49         O  0.86630779  0.66506860  0.89783806    -0.79700
O50         O  0.83950314  0.63778506  0.80122652    -0.83900
O51         O  0.86673988  0.60435466  0.83130100    -0.78700
O52         O  0.80805703  0.66896923  0.86270227    -0.80500
O53         O  0.90273473  0.66842642  0.86240913    -0.83300
C54         C  0.85492364  0.59333441  0.84686336     0.97500
C55         C  0.81807968  0.63424440  0.80673264     1.04900
O56         O  0.85499699  0.65208360  0.84877554    -1.12200
O57         O  0.87122426  0.69895836  0.83344151    -0.74700
O58         O  0.87611710  0.67189518  0.80545643    -0.78200
O59         O  0.84015727  0.60362753  0.86024255    -0.78900
C60         C  0.87456660  0.69330521  0.81202031     0.96400
O61         O  0.90374200  0.63917891  0.83607591    -0.76800
O62         O  0.83562568  0.69626450  0.86857357    -0.82000
C63         C  0.85213948  0.65057992  0.90749116     0.99000
C64         C  0.81415966  0.69027150  0.86627482     1.04900
O65         O  0.83634261  0.63971069  0.89587205    -0.77600
C66         C  0.91383294  0.65254698  0.85106825     1.03200
Fe67       Fe  0.67978569  0.63542610  0.62764990     1.65800
Fe68       Fe  0.63762794  0.63654634  0.67111108     1.73200
Fe69       Fe  0.63825584  0.67954824  0.62831018     1.54400
O70         O  0.67056437  0.69591338  0.62601941    -0.81400
O71         O  0.60334764  0.64003851  0.65832664    -0.79700
O72         O  0.69729015  0.66710962  0.62354035    -0.83900
O73         O  0.66611118  0.63727215  0.59395025    -0.78700
O74         O  0.63381718  0.69622877  0.66064161    -0.80500
O75         O  0.63833343  0.60252496  0.65791361    -0.83300
C76         C  0.65200640  0.65104105  0.58325034     0.97500
C77         C  0.69171672  0.68883521  0.62400997     1.04900
O78         O  0.65182147  0.65044047  0.64230838    -1.12200
O79         O  0.66991551  0.63195571  0.68762606    -0.74700
O80         O  0.69726202  0.63196911  0.65945616    -0.78200
O81         O  0.64070403  0.66728654  0.59385106    -0.78900
C82         C  0.69131147  0.63096670  0.68102691     0.96400
O83         O  0.66608468  0.60172130  0.62999745    -0.76800
O84         O  0.63559872  0.66847090  0.68848196    -0.82000
C85         C  0.59322586  0.65230367  0.64234996     0.99000
C86         C  0.63363497  0.68988275  0.68217205     1.04900
O87         O  0.60445124  0.66659153  0.62926573    -0.77600
C88         C  0.65058564  0.59164560  0.64261961     1.03200
Fe89       Fe  0.86997669  0.13627176  0.66653108     1.65800
Fe90       Fe  0.82664811  0.13818586  0.62454336     1.73200
Fe91       Fe  0.86952572  0.18062062  0.62551314     1.54400
O92         O  0.87615771  0.19553444  0.65821142    -0.81400
O93         O  0.84146549  0.13778143  0.59130608    -0.79700
O94         O  0.87142986  0.16755783  0.68547399    -0.83900
O95         O  0.90405243  0.14088598  0.65432208    -0.78700
O96         O  0.83775415  0.19842101  0.62569287    -0.80500
O97         O  0.83742582  0.10346421  0.62889694    -0.83300
C98         C  0.91411077  0.15207712  0.63767625     0.97500
C99         C  0.87522352  0.18892214  0.67963826     1.04900
O100        O  0.85547108  0.15163858  0.63881979    -1.12200
O101        O  0.80933042  0.13739596  0.65645211    -0.74700
O102        O  0.83780594  0.12988798  0.68249946    -0.78200
O103        O  0.90301218  0.16626718  0.62424379    -0.78900
C104        C  0.81614082  0.13245893  0.67727738     0.96400
O105        O  0.87000386  0.10310646  0.65097829    -0.76800
O106        O  0.81087351  0.17076179  0.61850866    -0.82000
C107        C  0.85489160  0.15222080  0.58060572     0.99000
C108        C  0.81663553  0.19225340  0.62154830     1.04900
O109        O  0.86473458  0.16957195  0.59097032    -0.77600
C110        C  0.85447036  0.09258920  0.63865907     1.03200
Fe111      Fe  0.87160348  0.36968114  0.81507814     1.65800
Fe112      Fe  0.82946652  0.37120604  0.85845738     1.73200
Fe113      Fe  0.87166805  0.32763305  0.85877664     1.54400
O114        O  0.87559128  0.30986341  0.82710257    -0.81400
O115        O  0.84278697  0.36978236  0.89248916    -0.79700
O116        O  0.87612369  0.33723778  0.79895392    -0.83900
O117        O  0.90519631  0.36884139  0.82905163    -0.78700
O118        O  0.83947312  0.31106349  0.86225545    -0.80500
O119        O  0.84289598  0.40496236  0.85598072    -0.83300
C120        C  0.91581972  0.35665534  0.84465064     0.97500
C121        C  0.87721315  0.31582830  0.80556153     1.04900
O122        O  0.85760371  0.35620050  0.84413807    -1.12200
O123        O  0.81239560  0.37436335  0.82625322    -0.74700
O124        O  0.83955061  0.37183377  0.79797281    -0.78200
O125        O  0.90550441  0.34093875  0.85691817    -0.78900
C126        C  0.81823599  0.37371892  0.80459611     0.96400
O127        O  0.86886648  0.40424022  0.82652180    -0.76800
O128        O  0.81221776  0.33943886  0.86272351    -0.82000
C129        C  0.85784917  0.35697491  0.90312618     0.99000
C130        C  0.81815139  0.31782961  0.86373768     1.04900
O131        O  0.86963421  0.34107031  0.89259049    -0.77600
C132        C  0.85720260  0.41522657  0.84216866     1.03200
Fe133      Fe  0.63941751  0.13742787  0.81788749     1.65800
Fe134      Fe  0.68334096  0.13798967  0.85979956     1.73200
Fe135      Fe  0.63943449  0.17963077  0.86129577     1.54400
O136        O  0.63524877  0.19681338  0.82963737    -0.81400
O137        O  0.67096329  0.13919419  0.89405173    -0.79700
O138        O  0.63593426  0.16982417  0.80103798    -0.83900
O139        O  0.60540979  0.13937293  0.83088032    -0.78700
O140        O  0.67107230  0.19733503  0.86474830    -0.80500
O141        O  0.67091663  0.10388814  0.85781655    -0.83300
C142        C  0.59493636  0.15117315  0.84679253     0.97500
C143        C  0.63438895  0.19116396  0.80799138     1.04900
O144        O  0.65403451  0.15164037  0.84635055    -1.12200
O145        O  0.69973955  0.13529120  0.82740435    -0.74700
O146        O  0.67113470  0.13352737  0.80050786    -0.78200
O147        O  0.60568953  0.16607756  0.85961710    -0.78900
C148        C  0.69278946  0.13334969  0.80617923     0.96400
O149        O  0.64147499  0.10354346  0.83162605    -0.76800
O150        O  0.69953523  0.17024982  0.86342226    -0.82000
C151        C  0.65518943  0.15072387  0.90501751     0.99000
C152        C  0.69268367  0.19149307  0.86522907     1.04900
O153        O  0.64208252  0.16584117  0.89483993    -0.77600
C154        C  0.65471079  0.09320863  0.84659467     1.03200
Fe155      Fe  0.63760345  0.37178567  0.67076329     1.65800
Fe156      Fe  0.67761937  0.36853506  0.62574185     1.73200
Fe157      Fe  0.63336379  0.32764745  0.62962349     1.54400
O158        O  0.62875206  0.31300572  0.66273641    -0.81400
O159        O  0.66172898  0.36785379  0.59307292    -0.79700
O160        O  0.63658222  0.34064994  0.68964925    -0.83900
O161        O  0.60248329  0.36821326  0.66117017    -0.78700
O162        O  0.66451653  0.30866621  0.62748969    -0.80500
O163        O  0.66666878  0.40326852  0.62869069    -0.83300
C164        C  0.59073045  0.35730340  0.64544928     0.97500
C165        C  0.63163056  0.31950247  0.68401803     1.04900
O166        O  0.64946437  0.35601684  0.64199939    -1.12200
O167        O  0.69699703  0.37036613  0.65642061    -0.74700
O168        O  0.67094814  0.37715211  0.68492045    -0.78200
O169        O  0.60036284  0.34322373  0.63085709    -0.78900
C170        C  0.69204310  0.37444359  0.67784531     0.96400
O171        O  0.63746336  0.40463390  0.65481578    -0.76800
O172        O  0.69240833  0.33551089  0.62076142    -0.82000
C173        C  0.64685746  0.35424553  0.58327647     0.99000
C174        C  0.68583166  0.31419864  0.62333547     1.04900
O175        O  0.63586677  0.33835478  0.59469160    -0.77600
C176        C  0.65065025  0.41452893  0.63958794     1.03200
Fe177      Fe  0.13585868  0.82881250  0.63183657     1.65800
Fe178      Fe  0.13535107  0.87210260  0.67411253     1.73200
Fe179      Fe  0.17817298  0.87215708  0.63128756     1.54400
O180        O  0.19531774  0.84003122  0.62767838    -0.81400
O181        O  0.13562474  0.90571948  0.65975732    -0.79700
O182        O  0.16809345  0.81179898  0.63098176    -0.83900
O183        O  0.13933862  0.84052402  0.59730474    -0.78700
O184        O  0.19536604  0.87552271  0.66337483    -0.80500
O185        O  0.10120983  0.86796846  0.66166309    -0.83300
C186        C  0.15054787  0.85673823  0.58654691     0.97500
C187        C  0.18942342  0.81840545  0.62912430     1.04900
O188        O  0.14971926  0.85778601  0.64566950    -1.12200
O189        O  0.13389460  0.84035009  0.69210246    -0.74700
O190        O  0.13055322  0.81277012  0.66428157    -0.78200
O191        O  0.16477675  0.87041927  0.59723408    -0.78900
C192        C  0.13127060  0.81897661  0.68582558     0.96400
O193        O  0.10198444  0.84243072  0.63164638    -0.76800
O194        O  0.16732894  0.87771644  0.69067417    -0.82000
C195        C  0.14871773  0.91654397  0.64510432     0.99000
C196        C  0.18889136  0.87789674  0.68471103     1.04900
O197        O  0.16491387  0.90618939  0.63351522    -0.77600
C198        C  0.09099326  0.85639340  0.64533599     1.03200
Fe199      Fe  0.36807827  0.82928995  0.86273476     1.65800
Fe200      Fe  0.36691459  0.87370316  0.82200667     1.73200
Fe201      Fe  0.32535242  0.87170555  0.86552564     1.54400
O202        O  0.30969318  0.83907461  0.87178712    -0.81400
O203        O  0.36853942  0.90622908  0.83850318    -0.79700
O204        O  0.33631109  0.81155488  0.86296372    -0.83900
O205        O  0.36415096  0.83959853  0.89755517    -0.78700
O206        O  0.30678526  0.87247631  0.83417803    -0.80500
O207        O  0.40167992  0.86803333  0.83231657    -0.83300
C208        C  0.35480307  0.85688504  0.90841480     0.97500
C209        C  0.31534568  0.81767018  0.86792041     1.04900
O210        O  0.35352293  0.85828708  0.85015854    -1.12200
O211        O  0.36624583  0.84268911  0.80274371    -0.74700
O212        O  0.37382281  0.81489873  0.82965501    -0.78200
O213        O  0.34140970  0.87180648  0.89827467    -0.78900
C214        C  0.37085103  0.82144443  0.80838179     0.96400
O215        O  0.40142765  0.84399514  0.86350039    -0.76800
O216        O  0.33420921  0.88135000  0.80744272    -0.82000
C217        C  0.35404142  0.91686502  0.85190289     0.99000
C218        C  0.31283553  0.87800985  0.81331520     1.04900
O219        O  0.33653123  0.90642123  0.86130414    -0.77600
C220        C  0.41220154  0.85747286  0.84917141     1.03200
Fe221      Fe  0.13503353  0.67835049  0.86376287     1.65800
Fe222      Fe  0.13654994  0.63644906  0.82018342     1.73200
Fe223      Fe  0.17967080  0.63730964  0.86287788     1.54400
O224        O  0.19522513  0.67019392  0.86742875    -0.81400
O225        O  0.13836545  0.60259149  0.83363804    -0.79700
O226        O  0.16631255  0.69671595  0.86686115    -0.83900
O227        O  0.13831036  0.66514929  0.89766308    -0.78700
O228        O  0.19674723  0.63571266  0.83080471    -0.80500
O229        O  0.10226460  0.63825369  0.83243094    -0.83300
C230        C  0.15136813  0.65001726  0.90793973     0.97500
C231        C  0.18804617  0.69149501  0.86811609     1.04900
O232        O  0.15034548  0.65058829  0.84906336    -1.12200
O233        O  0.13359464  0.66866219  0.80325325    -0.74700
O234        O  0.13039630  0.69547437  0.83178091    -0.78200
O235        O  0.16659228  0.63774770  0.89694686    -0.78900
C236        C  0.13110856  0.68990507  0.81006066     0.96400
O237        O  0.10159401  0.66368782  0.86237678    -0.76800
O238        O  0.16867160  0.63297101  0.80357495    -0.82000
C239        C  0.15194872  0.59200396  0.84805422     0.99000
C240        C  0.19024441  0.63377656  0.80943841     1.04900
O241        O  0.16806883  0.60259842  0.85963046    -0.77600
C242        C  0.09132643  0.64923000  0.84861188     1.03200
Fe243      Fe  0.37187049  0.68284545  0.63125471     1.65800
Fe244      Fe  0.37016070  0.64007296  0.67380668     1.73200
Fe245      Fe  0.32814052  0.64122799  0.63054639     1.54400
O246        O  0.31261917  0.67397075  0.62507940    -0.81400
O247        O  0.37111944  0.60692105  0.65854002    -0.79700
O248        O  0.34043323  0.70122234  0.63059442    -0.83900
O249        O  0.36747398  0.67140615  0.59671391    -0.78700
O250        O  0.31019086  0.64035499  0.66205968    -0.80500
O251        O  0.40482248  0.64509858  0.66334119    -0.83300
C252        C  0.35663815  0.65463362  0.58641064     0.97500
C253        C  0.31902438  0.69537708  0.62749249     1.04900
O254        O  0.35680533  0.65462124  0.64508291    -1.12200
O255        O  0.36980065  0.67178789  0.69163707    -0.74700
O256        O  0.37822539  0.69842441  0.66381852    -0.78200
O257        O  0.34263784  0.64093006  0.59725308    -0.78900
C258        C  0.37469268  0.69272741  0.68524962     0.96400
O259        O  0.40490747  0.66750260  0.63094492    -0.76800
O260        O  0.33776986  0.63330323  0.68909831    -0.82000
C261        C  0.35696907  0.59621917  0.64474791     0.99000
C262        C  0.31634555  0.63590331  0.68312742     1.04900
O263        O  0.33984178  0.60669835  0.63456593    -0.77600
C264        C  0.41551141  0.65498342  0.64627175     1.03200
Fe265      Fe  0.13557150  0.18090055  0.63273477     1.65800
Fe266      Fe  0.17988084  0.13959991  0.63195565     1.73200
Fe267      Fe  0.13642809  0.13638629  0.67393792     1.54400
O268        O  0.13361364  0.16743683  0.69245827    -0.81400
O269        O  0.16814992  0.10500352  0.63316455    -0.79700
O270        O  0.13141971  0.19625391  0.66567292    -0.83900
O271        O  0.10209409  0.16681419  0.63337343    -0.78700
O272        O  0.16854316  0.13155046  0.69088689    -0.80500
O273        O  0.16658883  0.14164409  0.59793788    -0.83300
C274        C  0.09153745  0.15167456  0.64602630     0.97500
C275        C  0.13170720  0.18908999  0.68698575     1.04900
O276        O  0.15058038  0.15225492  0.64615061    -1.12200
O277        O  0.19559338  0.17245013  0.62901326    -0.74700
O278        O  0.16681645  0.19915419  0.63019774    -0.78200
O279        O  0.10209180  0.13937032  0.66157519    -0.78900
C280        C  0.18844433  0.19372916  0.62864685     0.96400
O281        O  0.13836574  0.16903894  0.59826364    -0.76800
O282        O  0.19685597  0.13625900  0.66415358    -0.82000
C283        C  0.15167178  0.09383325  0.64350039     0.99000
C284        C  0.19018951  0.13293756  0.68530087     1.04900
O285        O  0.13797852  0.10350882  0.65836637    -0.77600
C286        C  0.15097375  0.15395742  0.58742788     1.03200
Fe287      Fe  0.36889628  0.37316885  0.67381937     1.65800
Fe288      Fe  0.36703123  0.33024192  0.63113534     1.73200
Fe289      Fe  0.32517022  0.37413727  0.63192449     1.54400
O290        O  0.30907484  0.37870973  0.66436572    -0.81400
O291        O  0.36638925  0.34443909  0.59745049    -0.79700
O292        O  0.33726344  0.37591917  0.69163855    -0.83900
O293        O  0.36633180  0.40741399  0.66137936    -0.78700
O294        O  0.30714440  0.34263809  0.62953200    -0.80500
O295        O  0.40163677  0.34148188  0.63436269    -0.83300
C296        C  0.35462034  0.41808925  0.64546587     0.97500
C297        C  0.31572089  0.37798925  0.68579447     1.04900
O298        O  0.35376461  0.35922784  0.64555866    -1.12200
O299        O  0.36896063  0.31269197  0.66310586    -0.74700
O300        O  0.37340095  0.34086658  0.69021114    -0.78200
O301        O  0.33941002  0.40768699  0.63270367    -0.78900
C302        C  0.37233628  0.31924653  0.68430656     0.96400
O303        O  0.40245710  0.37167430  0.65962420    -0.76800
O304        O  0.33444487  0.31456090  0.62621398    -0.82000
C305        C  0.35314495  0.35931109  0.58699790     0.99000
C306        C  0.31305540  0.32120320  0.62672723     1.04900
O307        O  0.33735007  0.37106555  0.59772302    -0.77600
C308        C  0.41270253  0.35740998  0.64567258     1.03200
Fe309      Fe  0.32907163  0.13911628  0.86240455     1.65800
Fe310      Fe  0.37262047  0.13881604  0.82074095     1.73200
Fe311      Fe  0.37244598  0.18116619  0.86401226     1.54400
O312        O  0.34029865  0.19775904  0.86899076    -0.81400
O313        O  0.40605164  0.13857697  0.83534656    -0.79700
O314        O  0.31205486  0.17124552  0.86261365    -0.83900
O315        O  0.33986756  0.14331643  0.89701175    -0.78700
O316        O  0.37460219  0.19907910  0.83228799    -0.80500
O317        O  0.36835706  0.10449073  0.83295888    -0.83300
C318        C  0.35664401  0.15338647  0.90795249     0.97500
C319        C  0.31871044  0.19234325  0.86638871     1.04900
O320        O  0.35815586  0.15296148  0.84911651    -1.12200
O321        O  0.34108380  0.13774974  0.80243175    -0.74700
O322        O  0.31349277  0.13304175  0.82988616    -0.78200
O323        O  0.37165087  0.16645187  0.89756806    -0.78900
C324        C  0.31977469  0.13452950  0.80843331     0.96400
O325        O  0.34327102  0.10555897  0.86326996    -0.76800
O326        O  0.37840563  0.17123189  0.80482648    -0.82000
C327        C  0.41688996  0.15230595  0.84939969     0.99000
C328        C  0.37757689  0.19282109  0.81094323     1.04900
O329        O  0.40663335  0.16888761  0.86050820    -0.77600
C330        C  0.35740009  0.09448556  0.84983646     1.03200
Fe331      Fe  0.13548439  0.36836706  0.82258649     1.65800
Fe332      Fe  0.13707595  0.32678976  0.86667044     1.73200
Fe333      Fe  0.17906464  0.37026440  0.86455588     1.54400
O334        O  0.19474814  0.37472178  0.83178971    -0.81400
O335        O  0.13867372  0.34119711  0.90003996    -0.79700
O336        O  0.16696715  0.36962996  0.80437248    -0.83900
O337        O  0.13899131  0.40299400  0.83354658    -0.78700
O338        O  0.19680604  0.33852132  0.86674529    -0.80500
O339        O  0.10297975  0.33919368  0.86418492    -0.83300
C340        C  0.15015790  0.41396966  0.84961908     0.97500
C341        C  0.18831815  0.37285015  0.81034833     1.04900
O342        O  0.15047662  0.35520417  0.85133489    -1.12200
O343        O  0.13406999  0.30857264  0.83536518    -0.74700
O344        O  0.13017978  0.33578599  0.80728899    -0.78200
O345        O  0.16461464  0.40374089  0.86342156    -0.78900
C346        C  0.13102218  0.31441095  0.81395216     0.96400
O347        O  0.10221489  0.36814886  0.83744944    -0.76800
O348        O  0.16941542  0.31059142  0.87072837    -0.82000
C349        C  0.15176935  0.35621093  0.91029246     0.99000
C350        C  0.19079657  0.31705964  0.86938920     1.04900
O351        O  0.16754784  0.36774155  0.89925286    -0.77600
C352        C  0.09207941  0.35501691  0.85257354     1.03200
Fe353      Fe  0.82348037  0.86961498  0.36014687     1.65800
Fe354      Fe  0.86677704  0.82720186  0.35958917     1.73200
Fe355      Fe  0.86739752  0.87176056  0.31845994     1.54400
O356        O  0.83586480  0.87487348  0.30049131    -0.81400
O357        O  0.90060262  0.84127151  0.35964323    -0.79700
O358        O  0.80737522  0.87365008  0.32755182    -0.83900
O359        O  0.83585184  0.90393707  0.35975048    -0.78700
O360        O  0.87282945  0.84046906  0.30031277    -0.80500
O361        O  0.86319371  0.83863516  0.39395354    -0.83300
C362        C  0.85129073  0.91511870  0.34800623     0.97500
C363        C  0.81423254  0.87513664  0.30623463     1.04900
O364        O  0.85259196  0.85622558  0.34611079    -1.12200
O365        O  0.83475218  0.80939300  0.36104217    -0.74700
O366        O  0.80707740  0.83725160  0.36225891    -0.78200
O367        O  0.86419777  0.90523648  0.33259816    -0.78900
C368        C  0.81324231  0.81570190  0.36237101     0.96400
O369        O  0.83571610  0.86672186  0.39460391    -0.76800
O370        O  0.87219213  0.81174177  0.32708050    -0.82000
C371        C  0.91111467  0.85751555  0.34821137     0.99000
C372        C  0.87443874  0.81878749  0.30592795     1.04900
O373        O  0.90067884  0.87025849  0.33294756    -0.77600
C374        C  0.85058125  0.85345788  0.40504654     1.03200
Fe375      Fe  0.82474538  0.63860185  0.12933305     1.65800
Fe376      Fe  0.86885699  0.67970597  0.13009172     1.73200
Fe377      Fe  0.86681556  0.63687122  0.17253380     1.54400
O378        O  0.83420749  0.63127764  0.18809244    -0.81400
O379        O  0.90143628  0.66332994  0.12891445    -0.79700
O380        O  0.80660053  0.63821629  0.16094711    -0.83900
O381        O  0.83518976  0.60408976  0.13370350    -0.78700
O382        O  0.86817356  0.66891029  0.19040633    -0.80500
O383        O  0.86329998  0.66882064  0.09576732    -0.83300
C384        C  0.85177901  0.59308368  0.14398691     0.97500
C385        C  0.81271962  0.63356700  0.18204211     1.04900
O386        O  0.85350835  0.65166876  0.14397006    -1.12200
O387        O  0.83762963  0.69875980  0.13026454    -0.74700
O388        O  0.81030603  0.67131160  0.12302754    -0.78200
O389        O  0.86649973  0.60333354  0.15756219    -0.78900
C390        C  0.81653313  0.69268188  0.12559286     0.96400
O391        O  0.83950785  0.63761336  0.09603977    -0.76800
O392        O  0.87684015  0.69499617  0.16220290    -0.82000
C393        C  0.91193042  0.64987110  0.14354612     0.99000
C394        C  0.87402336  0.68956948  0.18374603     1.04900
O395        O  0.90132564  0.64048041  0.16098739    -0.77600
C396        C  0.85275667  0.65209574  0.08521331     1.03200
Fe397      Fe  0.67717759  0.86753053  0.12548879     1.65800
Fe398      Fe  0.63322662  0.82575358  0.12747508     1.73200
Fe399      Fe  0.63510880  0.87015341  0.16866991     1.54400
O400        O  0.66753074  0.87424398  0.18476600    -0.81400
O401        O  0.59957373  0.84033484  0.12838940    -0.79700
O402        O  0.69512048  0.87035315  0.15718910    -0.83900
O403        O  0.66575739  0.90200977  0.12734575    -0.78700
O404        O  0.63206086  0.83871630  0.18716029    -0.80500
O405        O  0.63618099  0.83702437  0.09292896    -0.83300
C406        C  0.65017677  0.91340293  0.13865754     0.97500
C407        C  0.68900485  0.87325748  0.17855964     1.04900
O408        O  0.64842756  0.85452658  0.14046213    -1.12200
O409        O  0.66483189  0.80748886  0.12533297    -0.74700
O410        O  0.69264886  0.83498820  0.12175981    -0.78200
O411        O  0.63672716  0.90362408  0.15373215    -0.78900
C412        C  0.68624183  0.81356382  0.12263904     0.96400
O413        O  0.66297837  0.86588007  0.09193412    -0.76800
O414        O  0.62867682  0.81034824  0.16017636    -0.82000
C415        C  0.58958614  0.85575426  0.14134722     0.99000
C416        C  0.62943320  0.81714256  0.18152634     1.04900
O417        O  0.60091251  0.86774210  0.15653041    -0.77600
C418        C  0.64815143  0.85240265  0.08183524     1.03200
Fe419      Fe  0.67465844  0.63660128  0.36129680     1.65800
Fe420      Fe  0.63244884  0.67972730  0.35882470     1.73200
Fe421      Fe  0.63264521  0.63531554  0.31782590     1.54400
O422        O  0.66503231  0.62860224  0.30237293    -0.81400
O423        O  0.59902332  0.66542829  0.35958960    -0.79700
O424        O  0.69276440  0.63416627  0.32967027    -0.83900
O425        O  0.66235078  0.60229935  0.35826855    -0.78700
O426        O  0.63228377  0.66651122  0.29894085    -0.80500
O427        O  0.63635380  0.66934836  0.39365721    -0.83300
C428        C  0.64561943  0.59167135  0.34770268     0.97500
C429        C  0.68655847  0.63012672  0.30846337     1.04900
O430        O  0.64652767  0.65047956  0.34603662    -1.12200
O431        O  0.66441301  0.69709768  0.35922876    -0.74700
O432        O  0.69100130  0.66894165  0.36621088    -0.78200
O433        O  0.63194161  0.60225017  0.33336678    -0.78900
C434        C  0.68541883  0.69053328  0.36353909     0.96400
O435        O  0.65978164  0.63781776  0.39465516    -0.76800
O436        O  0.62665326  0.69458505  0.32590236    -0.82000
C437        C  0.58806533  0.65139794  0.34594093     0.99000
C438        C  0.62880626  0.68792639  0.30459717     1.04900
O439        O  0.59821491  0.64031361  0.32924447    -0.77600
C440        C  0.64646070  0.65273231  0.40487752     1.03200
Fe441      Fe  0.63914675  0.13573182  0.16986522     1.65800
Fe442      Fe  0.64152267  0.17833833  0.12679669     1.73200
Fe443      Fe  0.68249681  0.13353755  0.12762810     1.54400
O444        O  0.69870169  0.12877202  0.15986301    -0.81400
O445        O  0.64298610  0.16472879  0.09295040    -0.79700
O446        O  0.67079039  0.13055738  0.18736631    -0.83900
O447        O  0.63960275  0.10164223  0.15674440    -0.78700
O448        O  0.70118434  0.16482959  0.12481048    -0.80500
O449        O  0.60678576  0.16707977  0.12851799    -0.83300
C450        C  0.65143351  0.09040795  0.14135832     0.97500
C451        C  0.69219987  0.12815112  0.18127531     1.04900
O452        O  0.65432927  0.14915771  0.14137504    -1.12200
O453        O  0.63838583  0.19572681  0.15874321    -0.74700
O454        O  0.63688829  0.16810691  0.18666346    -0.78200
O455        O  0.66736246  0.10019771  0.12893655    -0.78900
C456        C  0.63677629  0.18965638  0.18027776     0.96400
O457        O  0.60540007  0.13932011  0.15638935    -0.76800
O458        O  0.67457563  0.19368730  0.12350761    -0.82000
C459        C  0.65539262  0.14912450  0.08268638     0.99000
C460        C  0.69588880  0.18660168  0.12337998     1.04900
O461        O  0.67048390  0.13649281  0.09342709    -0.77600
C462        C  0.59539865  0.15238178  0.14108056     1.03200
Fe463      Fe  0.68184960  0.37073465  0.36061718     1.65800
Fe464      Fe  0.63916672  0.36808831  0.31807555     1.73200
Fe465      Fe  0.64100966  0.32634065  0.36185222     1.54400
O466        O  0.67408506  0.31171039  0.36813895    -0.81400
O467        O  0.60583146  0.36776843  0.33290345    -0.79700
O468        O  0.70084715  0.33975525  0.36119197    -0.83900
O469        O  0.67076508  0.36599985  0.39517211    -0.78700
O470        O  0.64056141  0.30790938  0.33047908    -0.80500
O471        O  0.64249321  0.40293666  0.32923320    -0.83300
C472        C  0.65414157  0.35525112  0.40569803     0.97500
C473        C  0.69533239  0.31844739  0.36547310     1.04900
O474        O  0.65394555  0.35507660  0.34687556    -1.12200
O475        O  0.67094202  0.36964727  0.30021930    -0.74700
O476        O  0.69730836  0.37760442  0.32817835    -0.78200
O477        O  0.64012071  0.34145109  0.39494710    -0.78900
C478        C  0.69180711  0.37492352  0.30658877     0.96400
O479        O  0.66562775  0.40330025  0.36111990    -0.76800
O480        O  0.63395692  0.33509601  0.30277157    -0.82000
C481        C  0.59542615  0.35372149  0.34699075     0.99000
C482        C  0.63651839  0.31368298  0.30919264     1.04900
O483        O  0.60621133  0.33700644  0.35751954    -0.77600
C484        C  0.65202403  0.41363977  0.34657317     1.03200
Fe485      Fe  0.83013178  0.13692234  0.35926217     1.65800
Fe486      Fe  0.87186826  0.13639376  0.31574447     1.73200
Fe487      Fe  0.87310369  0.17929470  0.35844626     1.54400
O488        O  0.84135321  0.19717018  0.36090439    -0.81400
O489        O  0.90667995  0.14093163  0.32650077    -0.79700
O490        O  0.81435389  0.16919830  0.36589263    -0.83900
O491        O  0.84524377  0.13635862  0.39229322    -0.78700
O492        O  0.87765681  0.19551667  0.32578295    -0.80500
O493        O  0.87285207  0.10312683  0.33056303    -0.83300
C494        C  0.85939696  0.15000296  0.40310056     0.97500
C495        C  0.82020633  0.19081498  0.36476688     1.04900
O496        O  0.85843016  0.15083685  0.34455044    -1.12200
O497        O  0.83921752  0.12963718  0.30050183    -0.74700
O498        O  0.81181140  0.13649710  0.32785535    -0.78200
O499        O  0.87014163  0.16687724  0.39285557    -0.78900
C500        C  0.81784327  0.13207029  0.30676848     0.96400
O501        O  0.84178033  0.10246907  0.35465274    -0.76800
O502        O  0.87176079  0.16820536  0.29797449    -0.82000
C503        C  0.91725578  0.15138675  0.34334282     0.99000
C504        C  0.87503054  0.18949812  0.30426630     1.04900
O505        O  0.90657873  0.16485063  0.35773147    -0.77600
C506        C  0.85868956  0.09218898  0.34405699     1.03200
Fe507      Fe  0.87234666  0.32846563  0.12592515     1.65800
Fe508      Fe  0.82865365  0.37042178  0.12642200     1.73200
Fe509      Fe  0.87158127  0.37087407  0.16902189     1.54400
O510        O  0.87739071  0.33864648  0.18532496    -0.81400
O511        O  0.84228676  0.40444831  0.12603129    -0.79700
O512        O  0.87445412  0.31076047  0.15772625    -0.83900
O513        O  0.90633477  0.34132660  0.12972763    -0.78700
O514        O  0.83976110  0.37183428  0.18664094    -0.80500
O515        O  0.84028084  0.36631806  0.09189723    -0.83300
C516        C  0.91645462  0.35787184  0.14107527     0.97500
C517        C  0.87698688  0.31707803  0.17908939     1.04900
O518        O  0.85762490  0.35668131  0.14037419    -1.12200
O519        O  0.81186485  0.33798787  0.12612607    -0.74700
O520        O  0.84040724  0.31141129  0.12058602    -0.78200
O521        O  0.90532458  0.37132907  0.15514417    -0.78900
C522        C  0.81878984  0.31684615  0.12304568     0.96400
O523        O  0.87178518  0.34279407  0.09239214    -0.76800
O524        O  0.81252692  0.37634021  0.15868858    -0.82000
C525        C  0.85588334  0.41544086  0.14018089     0.99000
C526        C  0.81853911  0.37513898  0.18027014     1.04900
O527        O  0.86706494  0.40496331  0.15662876    -0.77600
C528        C  0.85736996  0.35611620  0.08150915     1.03200
Fe529      Fe  0.13864714  0.17989963  0.36287579     1.65800
Fe530      Fe  0.13993068  0.13497330  0.32233708     1.73200
Fe531      Fe  0.18171562  0.13767899  0.36588788     1.54400
O532        O  0.19694495  0.17053055  0.37091272    -0.81400
O533        O  0.14063917  0.10197702  0.33786997    -0.79700
O534        O  0.17025181  0.19822044  0.36272922    -0.83900
O535        O  0.14326226  0.17023924  0.39794671    -0.78700
O536        O  0.19998807  0.13598422  0.33445422    -0.80500
O537        O  0.10541236  0.13845319  0.33438795    -0.83300
C538        C  0.15313192  0.15335235  0.40903414     0.97500
C539        C  0.19124696  0.19201609  0.36767924     1.04900
O540        O  0.15335122  0.15079032  0.35039278    -1.12200
O541        O  0.13768076  0.16585893  0.30317988    -0.74700
O542        O  0.13198670  0.19412581  0.32987075    -0.78200
O543        O  0.16635911  0.13832313  0.39892934    -0.78900
C544        C  0.13357782  0.18719635  0.30861368     0.96400
O545        O  0.10553302  0.16457238  0.36390653    -0.76800
O546        O  0.17279787  0.13005993  0.30667671    -0.82000
C547        C  0.15455549  0.09183322  0.35225456     0.99000
C548        C  0.19423525  0.13251933  0.31304780     1.04900
O549        O  0.17087798  0.10286425  0.36295631    -0.77600
C550        C  0.09490218  0.14971142  0.35078497     1.03200
Fe551      Fe  0.18207108  0.36731350  0.13267742     1.65800
Fe552      Fe  0.13828635  0.32611192  0.13330822     1.73200
Fe553      Fe  0.13955129  0.36943955  0.17493031     1.54400
O554        O  0.17229431  0.37572073  0.19032769    -0.81400
O555        O  0.10558770  0.34205074  0.13172682    -0.79700
O556        O  0.19995140  0.36577816  0.16433129    -0.83900
O557        O  0.17262473  0.40224651  0.13852206    -0.78700
O558        O  0.13883581  0.33821621  0.19352014    -0.80500
O559        O  0.14415693  0.33707471  0.09870277    -0.83300
C560        C  0.15475147  0.41272208  0.14708531     0.97500
C561        C  0.19369247  0.37132641  0.18513688     1.04900
O562        O  0.15322136  0.35430613  0.14691738    -1.12200
O563        O  0.16938499  0.30730762  0.13385895    -0.74700
O564        O  0.19621366  0.33452807  0.12483304    -0.78200
O565        O  0.13899984  0.40208358  0.15888750    -0.78900
C566        C  0.19024264  0.31317204  0.12830426     0.96400
O567        O  0.16655828  0.36951981  0.09978990    -0.76800
O568        O  0.13077330  0.31126170  0.16601770    -0.82000
C569        C  0.09466947  0.35525620  0.14618634     0.99000
C570        C  0.13367852  0.31725111  0.18749813     1.04900
O571        O  0.10494049  0.36492171  0.16370185    -0.77600
C572        C  0.15390052  0.35470262  0.08863551     1.03200
Fe573      Fe  0.37155793  0.13756409  0.17431808     1.65800
Fe574      Fe  0.32983315  0.13863705  0.13023411     1.73200
Fe575      Fe  0.37384005  0.18025569  0.13119901     1.54400
O576        O  0.37738091  0.19729480  0.16325727    -0.81400
O577        O  0.34409953  0.13961986  0.09648111    -0.79700
O578        O  0.37556383  0.16961027  0.19119382    -0.83900
O579        O  0.40599872  0.13851357  0.16210161    -0.78700
O580        O  0.34240495  0.19827402  0.12693603    -0.80500
O581        O  0.34151193  0.10414829  0.13299046    -0.83300
C582        C  0.41725113  0.15070962  0.14697597     0.97500
C583        C  0.37759642  0.19100533  0.18477806     1.04900
O584        O  0.35848735  0.15206669  0.14519118    -1.12200
O585        O  0.31177233  0.13661436  0.16208530    -0.74700
O586        O  0.33905874  0.13513195  0.19048318    -0.78200
O587        O  0.40731375  0.16609258  0.13396145    -0.78900
C588        C  0.31769779  0.13545427  0.18373390     0.96400
O589        O  0.36865423  0.10348138  0.16159821    -0.76800
O590        O  0.31415538  0.17107722  0.12567555    -0.82000
C591        C  0.35988285  0.15187417  0.08620061     0.99000
C592        C  0.32085871  0.19244882  0.12517002     1.04900
O593        O  0.37215411  0.16707326  0.09722299    -0.77600
C594        C  0.35602248  0.09321262  0.14615352     1.03200
Fe595      Fe  0.37239121  0.37008155  0.32272442     1.65800
Fe596      Fe  0.33019865  0.36904226  0.36557828     1.73200
Fe597      Fe  0.37342466  0.32723534  0.36502905     1.54400
O598        O  0.38037814  0.31184220  0.33267766    -0.81400
O599        O  0.34563551  0.37094615  0.39862214    -0.79700
O600        O  0.37280923  0.33839468  0.30476309    -0.83900
O601        O  0.40694713  0.36531243  0.33390515    -0.78700
O602        O  0.34187048  0.30887002  0.36484532    -0.80500
O603        O  0.34034507  0.40375469  0.35946432    -0.83300
C604        C  0.41739609  0.35547335  0.35123331     0.97500
C605        C  0.37767427  0.31740587  0.31111588     1.04900
O606        O  0.35880602  0.35556418  0.35121221    -1.12200
O607        O  0.31219661  0.36768673  0.33401881    -0.74700
O608        O  0.33971990  0.37647217  0.30732827    -0.78200
O609        O  0.40656404  0.34260544  0.36610895    -0.78900
C610        C  0.31837470  0.37260922  0.31305160     0.96400
O611        O  0.37313173  0.40328874  0.33776026    -0.76800
O612        O  0.31532930  0.33653331  0.37330389    -0.82000
C613        C  0.35829431  0.35597989  0.40966508     0.99000
C614        C  0.32095377  0.31506311  0.36999025     1.04900
O615        O  0.36814237  0.33864139  0.39933594    -0.77600
C616        C  0.35770531  0.41418810  0.34980826     1.03200
Fe617      Fe  0.17639872  0.63518944  0.13029141     1.65800
Fe618      Fe  0.13393984  0.63595987  0.17283929     1.73200
Fe619      Fe  0.13467945  0.67864211  0.13008520     1.54400
O620        O  0.16747609  0.69410136  0.12398885    -0.81400
O621        O  0.10099907  0.63494861  0.15770069    -0.79700
O622        O  0.19483567  0.66654985  0.13040310    -0.83900
O623        O  0.16491595  0.64046084  0.09568933    -0.78700
O624        O  0.13447988  0.69619998  0.16163134    -0.80500
O625        O  0.13924099  0.60110062  0.16168192    -0.83300
C626        C  0.14797182  0.65131880  0.08562716     0.97500
C627        C  0.18893611  0.68785870  0.12656234     1.04900
O628        O  0.14826574  0.64988215  0.14431555    -1.12200
O629        O  0.16541671  0.63596744  0.19073237    -0.74700
O630        O  0.19192278  0.62763997  0.16290871    -0.78200
O631        O  0.13380166  0.66463277  0.09667394    -0.78900
C632        C  0.18616934  0.63049175  0.18445973     0.96400
O633        O  0.16085038  0.60255225  0.12901551    -0.76800
O634        O  0.12703541  0.66859799  0.18858460    -0.82000
C635        C  0.08992568  0.64944636  0.14463341     0.99000
C636        C  0.13006461  0.69010071  0.18266276     1.04900
O637        O  0.10008231  0.66696273  0.13472735    -0.77600
C638        C  0.14902958  0.59102823  0.14408852     1.03200
Fe639      Fe  0.32355335  0.63610647  0.36415657     1.65800
Fe640      Fe  0.36594590  0.63759479  0.32099787     1.73200
Fe641      Fe  0.36538086  0.67998268  0.36435879     1.54400
O642        O  0.33292648  0.69618929  0.36781769    -0.81400
O643        O  0.39989007  0.63992670  0.33425370    -0.79700
O644        O  0.30575659  0.66777063  0.36705834    -0.83900
O645        O  0.33622668  0.63858794  0.39831993    -0.78700
O646        O  0.36850031  0.69747975  0.33251968    -0.80500
O647        O  0.36468710  0.60339066  0.33381333    -0.83300
C648        C  0.35172660  0.65095501  0.40878379     0.97500
C649        C  0.31156303  0.68941984  0.36796188     1.04900
O650        O  0.35168089  0.65118963  0.34987213    -1.12200
O651        O  0.33378847  0.63361585  0.30394101    -0.74700
O652        O  0.30669633  0.63166071  0.33217481    -0.78200
O653        O  0.36396498  0.66645925  0.39820082    -0.78900
C654        C  0.31250178  0.63121483  0.31056412     0.96400
O655        O  0.33789681  0.60257389  0.36248533    -0.76800
O656        O  0.36904060  0.67000543  0.30436259    -0.82000
C657        C  0.41031016  0.65227362  0.34984496     0.99000
C658        C  0.36978833  0.69144173  0.31097915     1.04900
O659        O  0.39959477  0.66752753  0.36233003    -0.77600
C660        C  0.35320255  0.59239927  0.34965218     1.03200
Fe661      Fe  0.13324652  0.86921478  0.31955241     1.65800
Fe662      Fe  0.13370625  0.82717978  0.36310628     1.73200
Fe663      Fe  0.17604239  0.87034995  0.36215650     1.54400
O664        O  0.19210743  0.87636495  0.32967526    -0.81400
O665        O  0.13360500  0.84179919  0.39661224    -0.79700
O666        O  0.16496208  0.87023011  0.30194601    -0.83900
O667        O  0.13696592  0.90381276  0.33134351    -0.78700
O668        O  0.19382105  0.83874661  0.36288594    -0.80500
O669        O  0.09926885  0.83887975  0.35887854    -0.83300
C670        C  0.14744306  0.91437347  0.34821040     0.97500
C671        C  0.18615042  0.87384908  0.30815731     1.04900
O672        O  0.14754634  0.85566519  0.34837246    -1.12200
O673        O  0.13258601  0.80912380  0.33150294    -0.74700
O674        O  0.12790768  0.83658198  0.30373171    -0.78200
O675        O  0.16116012  0.90360855  0.36238441    -0.78900
C676        C  0.12959795  0.81508586  0.31009576     0.96400
O677        O  0.09979226  0.86918351  0.33368760    -0.76800
O678        O  0.16620197  0.81136709  0.36881273    -0.82000
C679        C  0.14792170  0.85531604  0.40738884     0.99000
C680        C  0.18763307  0.81749465  0.36634900     1.04900
O681        O  0.16462931  0.86595967  0.39679141    -0.77600
C682        C  0.08894901  0.85545622  0.34769901     1.03200
Fe683      Fe  0.36619724  0.82704396  0.13056783     1.65800
Fe684      Fe  0.32443532  0.87093664  0.13021486     1.73200
Fe685      Fe  0.36796469  0.87066929  0.17247951     1.54400
O686        O  0.37275046  0.83863571  0.18940287    -0.81400
O687        O  0.33842470  0.90467299  0.13099265    -0.79700
O688        O  0.36797988  0.81008599  0.16280247    -0.83900
O689        O  0.40063369  0.83871672  0.13345228    -0.78700
O690        O  0.33614386  0.87310036  0.19017406    -0.80500
O691        O  0.33726228  0.86788440  0.09608442    -0.83300
C692        C  0.41171742  0.85506901  0.14410562     0.97500
C693        C  0.37127177  0.81693721  0.18390211     1.04900
O694        O  0.35290939  0.85627967  0.14436117    -1.12200
O695        O  0.30646893  0.83920519  0.12780244    -0.74700
O696        O  0.33373432  0.81101984  0.12602975    -0.78200
O697        O  0.40155903  0.86942875  0.15805921    -0.78900
C698        C  0.31232334  0.81760752  0.12617441     0.96400
O699        O  0.36566744  0.84062826  0.09673319    -0.76800
O700        O  0.30808140  0.87550714  0.16261157    -0.82000
C701        C  0.35349058  0.91534867  0.14374328     0.99000
C702        C  0.31460591  0.87486757  0.18410830     1.04900
O703        O  0.36513671  0.90481908  0.15977281    -0.77600
C704        C  0.35327816  0.85589281  0.08586824     1.03200
C705        C  0.25738748  0.88999668  0.21556245    -0.01700
C706        C  0.25984407  0.87765246  0.23707846     0.06900
C707        C  0.28042759  0.86454516  0.24132972    -0.07700
C708        C  0.29850460  0.86349182  0.22446847     0.04300
C709        C  0.29619768  0.87593000  0.20281723    -0.14900
C710        C  0.27544244  0.88901597  0.19863959    -0.08200
C711        C  0.24082477  0.87746123  0.25511105     0.05300
C712        C  0.22116341  0.86285218  0.25156281    -0.09400
C713        C  0.20325491  0.86133999  0.26856781     0.00300
C714        C  0.20469252  0.87496659  0.28956833     0.00100
C715        C  0.22455850  0.88950874  0.29306880    -0.12900
C716        C  0.24252935  0.89081602  0.27606916     0.00600
C717        C  0.18436391  0.84464321  0.26449091     0.39900
C718        C  0.26250522  0.90609401  0.28035086     0.36500
C719        C  0.23661217  0.90399884  0.21064828     0.36200
C720        C  0.31857606  0.84849213  0.22945748     0.37000
N721        N  0.16935206  0.83114120  0.26119487    -0.43800
N722        N  0.27854947  0.91832846  0.28369789    -0.44200
N723        N  0.33455480  0.83637098  0.23355239    -0.41600
N724        N  0.21998032  0.91527840  0.20676842    -0.43000
H725        H  0.27335889  0.89861680  0.18216986     0.13100
H726        H  0.28216594  0.85476490  0.25773977     0.09600
H727        H  0.22007318  0.85222756  0.23564853     0.10700
H728        H  0.22601015  0.89997348  0.30905235     0.16500
C729        C  0.35979401  0.74959760  0.27925117    -0.01700
C730        C  0.37263231  0.74631996  0.25819574     0.06900
C731        C  0.38536241  0.72530590  0.25484763    -0.07700
C732        C  0.38508169  0.70736866  0.27195280     0.04300
C733        C  0.37171724  0.71031547  0.29285358    -0.14900
C734        C  0.35949519  0.73170008  0.29639801    -0.08200
C735        C  0.37243578  0.76427214  0.23907826     0.05300
C736        C  0.38532561  0.78524648  0.24192470    -0.09400
C737        C  0.38555300  0.80252481  0.22412338     0.00300
C738        C  0.37265947  0.79885798  0.20293994     0.00100
C739        C  0.35993682  0.77766235  0.20017024    -0.12900
C740        C  0.35962445  0.76053353  0.21804836     0.00600
C741        C  0.39962193  0.82350459  0.22790177     0.39900
C742        C  0.34539093  0.73957837  0.21481546     0.36500
C743        C  0.34613867  0.77081347  0.28323350     0.36200
C744        C  0.39928558  0.68652439  0.26792273     0.37000
N745        N  0.41087999  0.84032945  0.23091658    -0.43800
N746        N  0.33391152  0.72281657  0.21236267    -0.44200
N747        N  0.41076451  0.66988173  0.26471408    -0.41600
N748        N  0.33515286  0.78779619  0.28638764    -0.43000
H749        H  0.34916391  0.73419830  0.31231779     0.13100
H750        H  0.39547292  0.72291876  0.23877077     0.09600
H751        H  0.39528721  0.78805059  0.25806370     0.10700
H752        H  0.34969335  0.77469034  0.18423814     0.16500
C753        C  0.21934578  0.76102497  0.38316630    -0.01700
C754        C  0.24029966  0.76276611  0.36990379     0.06900
C755        C  0.24395001  0.78246644  0.35533328    -0.07700
C756        C  0.22709247  0.80049513  0.35387846     0.04300
C757        C  0.20612111  0.79899826  0.36741444    -0.14900
C758        C  0.20246980  0.77907603  0.38185085    -0.08200
C759        C  0.25838938  0.74388929  0.37036197     0.05300
C760        C  0.25310456  0.72203496  0.36000408    -0.09400
C761        C  0.27001059  0.70400995  0.35908878     0.00300
C762        C  0.29273327  0.70767637  0.36899246     0.00100
C763        C  0.29788684  0.72970323  0.37939103    -0.12900
C764        C  0.28096777  0.74774866  0.38008207     0.00600
C765        C  0.26378512  0.68256494  0.34670079     0.39900
C766        C  0.28703586  0.77002957  0.39100959     0.36500
C767        C  0.21498456  0.74104528  0.39847327     0.36200
C768        C  0.23137981  0.81962991  0.33747449     0.37000
N769        N  0.25861573  0.66552355  0.33661953    -0.43800
N770        N  0.29179872  0.78793606  0.39971406    -0.44200
N771        N  0.23491071  0.83484913  0.32424073    -0.41600
N772        N  0.21153045  0.72500166  0.41071420    -0.43000
H773        H  0.18648475  0.77766909  0.39226384     0.13100
H774        H  0.25988094  0.78353875  0.34478672     0.09600
H775        H  0.23585013  0.71927443  0.35213510     0.10700
H776        H  0.31516504  0.73286476  0.38703046     0.16500
C777        C  0.28222614  0.75924292  0.11215283    -0.01700
C778        C  0.25969773  0.76227491  0.12228872     0.06900
C779        C  0.25426403  0.78379724  0.13338304    -0.07700
C780        C  0.27090882  0.80212818  0.13469586     0.04300
C781        C  0.29358959  0.79915581  0.12454709    -0.14900
C782        C  0.29886734  0.77756741  0.11330972    -0.08200
C783        C  0.24185062  0.74292870  0.12238450     0.05300
C784        C  0.24658224  0.72218338  0.13517921    -0.09400
C785        C  0.22987837  0.70392292  0.13660582     0.00300
C786        C  0.20772567  0.70628289  0.12505026     0.00100
C787        C  0.20318685  0.72707766  0.11209634    -0.12900
C788        C  0.21998889  0.74522963  0.11063558     0.00600
C789        C  0.23576790  0.68350091  0.15085146     0.39900
C790        C  0.21459649  0.76587059  0.09656704     0.36500
C791        C  0.28858678  0.73755610  0.10026299     0.36200
C792        C  0.26454756  0.82318333  0.14769698     0.37000
N793        N  0.24058844  0.66718509  0.16227788    -0.43800
N794        N  0.21030288  0.78238826  0.08523626    -0.44200
N795        N  0.25943357  0.83998399  0.15821391    -0.41600
N796        N  0.29369183  0.72015975  0.09076435    -0.43000
H797        H  0.31607994  0.77494835  0.10537751     0.13100
H798        H  0.23710040  0.78605647  0.14153842     0.09600
H799        H  0.26327539  0.72044495  0.14443591     0.10700
H800        H  0.18648518  0.72915381  0.10293564     0.16500
C801        C  0.11135576  0.72310739  0.23791940    -0.01700
C802        C  0.12497582  0.74391028  0.23644056     0.06900
C803        C  0.13997621  0.74725570  0.21708899    -0.07700
C804        C  0.14184628  0.73008396  0.19938030     0.04300
C805        C  0.12846361  0.70891534  0.20092230    -0.14900
C806        C  0.11327417  0.70575623  0.22031313    -0.08200
C807        C  0.12493762  0.76188355  0.25550730     0.05300
C808        C  0.13699388  0.75686260  0.27655990    -0.09400
C809        C  0.13885279  0.77382183  0.29451169     0.00300
C810        C  0.12803860  0.79630387  0.29170069     0.00100
C811        C  0.11591971  0.80117996  0.27047505    -0.12900
C812        C  0.11442624  0.78426251  0.25242657     0.00600
C813        C  0.15311862  0.76797232  0.31490630     0.39900
C814        C  0.10200546  0.79018754  0.23089941     0.36500
C815        C  0.09499182  0.71946034  0.25711437     0.36200
C816        C  0.15841472  0.73438790  0.18044669     0.37000
N817        N  0.16469464  0.76320907  0.33111846    -0.43800
N818        N  0.09208782  0.79490645  0.21361485    -0.44200
N819        N  0.17169724  0.73795763  0.16532746    -0.41600
N820        N  0.08177195  0.71663586  0.27243761    -0.43000
H821        H  0.10269205  0.68983714  0.22160161     0.13100
H822        H  0.15060240  0.76317650  0.21608112     0.09600
H823        H  0.14553855  0.73981281  0.27867619     0.10700
H824        H  0.10760189  0.81827027  0.26791428     0.16500
C825        C  0.22037942  0.64212871  0.24067947    -0.01700
C826        C  0.23896369  0.62561561  0.23914839     0.06900
C827        C  0.23968968  0.60985298  0.21998797    -0.07700
C828        C  0.22247440  0.61076469  0.20212612     0.04300
C829        C  0.20433678  0.62793881  0.20319034    -0.14900
C830        C  0.20332096  0.64318733  0.22279339    -0.08200
C831        C  0.25830186  0.62538811  0.25689709     0.05300
C832        C  0.25359695  0.61772798  0.27996886    -0.09400
C833        C  0.27093521  0.61902449  0.29764671     0.00300
C834        C  0.29367053  0.62820605  0.29229867     0.00100
C835        C  0.29835824  0.63531950  0.26890064    -0.12900
C836        C  0.28091502  0.63409018  0.25134681     0.00600
C837        C  0.26469009  0.61072717  0.32098173     0.39900
C838        C  0.28621034  0.64289684  0.22797410     0.36500
C839        C  0.21887358  0.65864066  0.26010532     0.36200
C840        C  0.22323622  0.59328541  0.18351992     0.37000
N841        N  0.25957334  0.60422985  0.33969840    -0.43800
N842        N  0.29024794  0.65000413  0.20921824    -0.44200
N843        N  0.22368756  0.57916812  0.16870643    -0.41600
N844        N  0.21769522  0.67180995  0.27572250    -0.43000
H845        H  0.18941868  0.65633982  0.22391777     0.13100
H846        H  0.25375523  0.59687508  0.21900245     0.09600
H847        H  0.23617791  0.61102498  0.28422715     0.10700
H848        H  0.31549735  0.64252705  0.26437597     0.16500
C849        C  0.33863244  0.47816837  0.34962394    -0.01700
C850        C  0.36017377  0.49022538  0.35287922     0.06900
C851        C  0.38113141  0.47719019  0.35545883    -0.07700
C852        C  0.38083141  0.45236480  0.35474647     0.04300
C853        C  0.35917922  0.44026979  0.35177345    -0.14900
C854        C  0.33824255  0.45342655  0.34943217    -0.08200
C855        C  0.36096204  0.51646323  0.35319313     0.05300
C856        C  0.35064201  0.52858023  0.37216236    -0.09400
C857        C  0.34875202  0.55331019  0.37201657     0.00300
C858        C  0.35717981  0.56642965  0.35236350     0.00100
C859        C  0.36850578  0.55412243  0.33390388    -0.12900
C860        C  0.37038547  0.52942056  0.33416903     0.00600
C861        C  0.33807767  0.56450920  0.39231710     0.39900
C862        C  0.38096553  0.51766840  0.31414568     0.36500
C863        C  0.31689860  0.49086280  0.34525432     0.36200
C864        C  0.40284278  0.43974620  0.35760006     0.37000
N865        N  0.32953312  0.57343158  0.40861576    -0.43800
N866        N  0.38941395  0.50824062  0.29808883    -0.44200
N867        N  0.42046201  0.42958520  0.35985545    -0.41600
N868        N  0.29957037  0.50109511  0.34153332    -0.43000
H869        H  0.32160772  0.44435833  0.34661144     0.13100
H870        H  0.39771109  0.48644339  0.35791976     0.09600
H871        H  0.34362109  0.51859321  0.38692846     0.10700
H872        H  0.37517560  0.56367695  0.31870703     0.16500
C873        C  0.36009687  0.03229253  0.11866301    -0.01700
C874        C  0.35920359  0.01755543  0.13880181     0.06900
C875        C  0.35781677  0.02784134  0.16130536    -0.07700
C876        C  0.35697925  0.05241400  0.16402134     0.04300
C877        C  0.35770467  0.06722383  0.14390565    -0.14900
C878        C  0.35910904  0.05695196  0.12133929    -0.08200
C879        C  0.35895759  0.99133662  0.13717078     0.05300
C880        C  0.37754298  0.97853276  0.14744255    -0.09400
C881        C  0.37666343  0.95380844  0.14917224     0.00300
C882        C  0.35676396  0.94133046  0.14035648     0.00100
C883        C  0.33860181  0.95429434  0.12924361    -0.12900
C884        C  0.33941253  0.97902304  0.12786272     0.00600
C885        C  0.39636531  0.94199541  0.16037044     0.39900
C886        C  0.31924671  0.99143986  0.11827553     0.36500
C887        C  0.36243826  0.02254898  0.09519602     0.36200
C888        C  0.35393498  0.06187837  0.18754693     0.37000
N889        N  0.41217476  0.93270441  0.16948479    -0.43800
N890        N  0.30305656  0.00140248  0.11067672    -0.44200
N891        N  0.35135431  0.06939803  0.20639609    -0.41600
N892        N  0.36434390  0.01478607  0.07636457    -0.43000
H893        H  0.35965337  0.06821709  0.10582323     0.13100
H894        H  0.35683165  0.01656154  0.17679400     0.09600
H895        H  0.39254375  0.98800361  0.15471237     0.10700
H896        H  0.32310760  0.94522428  0.12255626     0.16500
C897        C  0.36676910  0.22418714  0.24168363    -0.01700
C898        C  0.38063249  0.24471209  0.23861034     0.06900
C899        C  0.39436703  0.24707500  0.21810936    -0.07700
C900        C  0.39401237  0.22963833  0.20051260     0.04300
C901        C  0.37962897  0.20939451  0.20329333    -0.14900
C902        C  0.36641331  0.20676955  0.22412340    -0.08200
C903        C  0.38103701  0.26379626  0.25666648     0.05300
C904        C  0.38851900  0.25839901  0.27967276    -0.09400
C905        C  0.38772821  0.27535662  0.29767294     0.00300
C906        C  0.37982018  0.29869085  0.29263007     0.00100
C907        C  0.37299124  0.30413317  0.26927266    -0.12900
C908        C  0.37336624  0.28695582  0.25145548     0.00600
C909        C  0.39480693  0.26786885  0.32106585     0.39900
C910        C  0.36478684  0.29327462  0.22822248     0.36500
C911        C  0.35225996  0.22088615  0.26241416     0.36200
C912        C  0.40932705  0.23246880  0.18031745     0.37000
N913        N  0.40032495  0.26170274  0.33980128    -0.43800
N914        N  0.35787018  0.29833940  0.20962481    -0.44200
N915        N  0.42171170  0.23462895  0.16420345    -0.41600
N916        N  0.34075819  0.21826305  0.27910687    -0.43000
H917        H  0.35532720  0.19131164  0.22646184     0.13100
H918        H  0.40548274  0.26252761  0.21593917     0.09600
H919        H  0.39461517  0.24064526  0.28367263     0.10700
H920        H  0.36669996  0.32172399  0.26492379     0.16500
C921        C  0.13186142  0.52710336  0.15636202    -0.01700
C922        C  0.14732463  0.51453203  0.14141588     0.06900
C923        C  0.16188079  0.52709668  0.12589891    -0.07700
C924        C  0.16220782  0.55183093  0.12580900     0.04300
C925        C  0.14746202  0.56473381  0.14155904    -0.14900
C926        C  0.13207894  0.55193855  0.15638111    -0.08200
C927        C  0.14946060  0.48833084  0.14229100     0.05300
C928        C  0.12995800  0.47423211  0.13621363    -0.09400
C929        C  0.13144165  0.44948409  0.13707649     0.00300
C930        C  0.15275710  0.43854922  0.14404572     0.00100
C931        C  0.17244940  0.45260528  0.14937968    -0.12900
C932        C  0.17094485  0.47729524  0.14871257     0.00600
C933        C  0.11121474  0.43565430  0.12991003     0.39900
C934        C  0.19147552  0.49088761  0.15548664     0.36500
C935        C  0.11626404  0.51490457  0.17244724     0.36200
C936        C  0.17868257  0.56308066  0.10989358     0.37000
N937        N  0.09512260  0.42447177  0.12403381    -0.43800
N938        N  0.20796109  0.50172226  0.16089919    -0.44200
N939        N  0.19191424  0.57196225  0.09708504    -0.41600
N940        N  0.10371133  0.50505413  0.18523072    -0.43000
H941        H  0.12052701  0.56129069  0.16844684     0.13100
H942        H  0.17352839  0.51743460  0.11413977     0.09600
H943        H  0.11361499  0.48258955  0.13071695     0.10700
H944        H  0.18883926  0.44427737  0.15481625     0.16500
C945        C  0.25158629  0.36058303  0.21743490    -0.01700
C946        C  0.24736923  0.37112230  0.23955000     0.06900
C947        C  0.22569263  0.38220021  0.24382449    -0.07700
C948        C  0.20810603  0.38292992  0.22639936     0.04300
C949        C  0.21204524  0.37212919  0.20409288    -0.14900
C950        C  0.23402138  0.36112214  0.19997293    -0.08200
C951        C  0.26550515  0.37123122  0.25840826     0.05300
C952        C  0.28358240  0.38813250  0.25750396    -0.09400
C953        C  0.30075778  0.38924620  0.27532075     0.00300
C954        C  0.30002290  0.37307069  0.29438626     0.00100
C955        C  0.28168689  0.35632127  0.29532731    -0.12900
C956        C  0.26452206  0.35527417  0.27751679     0.00600
C957        C  0.31824073  0.40780838  0.27415587     0.39900
C958        C  0.24627234  0.33749007  0.27899959     0.36500
C959        C  0.27367852  0.34882196  0.21244069     0.36200
C960        C  0.18653205  0.39535586  0.23197214     0.37000
N961        N  0.33216582  0.42277078  0.27331560    -0.43800
N962        N  0.23167532  0.32321100  0.28019190    -0.44200
N963        N  0.16928485  0.40535072  0.23653469    -0.41600
N964        N  0.29137777  0.33938253  0.20846356    -0.43000
H965        H  0.23747207  0.35259928  0.18317119     0.13100
H966        H  0.22260499  0.39048366  0.26082925     0.09600
H967        H  0.28407445  0.40064652  0.24297756     0.10700
H968        H  0.28101017  0.34372387  0.30977719     0.16500
C969        C  0.26169021  0.22084546  0.11233585    -0.01700
C970        C  0.26516996  0.24419572  0.12022401     0.06900
C971        C  0.28736519  0.25098241  0.12888277    -0.07700
C972        C  0.30594729  0.23468605  0.13035384     0.04300
C973        C  0.30248830  0.21107554  0.12264904    -0.14900
C974        C  0.28029261  0.20461721  0.11339992    -0.08200
C975        C  0.24547645  0.26139734  0.12111616     0.05300
C976        C  0.22681695  0.25722646  0.13683523    -0.09400
C977        C  0.20841555  0.27357359  0.13926295     0.00300
C978        C  0.20854887  0.29462411  0.12568653     0.00100
C979        C  0.22719604  0.29856857  0.10975408    -0.12900
C980        C  0.24555520  0.28218207  0.10738063     0.00600
C981        C  0.19042642  0.26877503  0.15670632     0.39900
C982        C  0.26416074  0.28694992  0.09060851     0.36500
C983        C  0.23910176  0.21308661  0.10331399     0.36200
C984        C  0.32772936  0.24245609  0.14119114     0.37000
N985        N  0.17609256  0.26487748  0.17074496    -0.43800
N986        N  0.27905817  0.29078373  0.07715877    -0.44200
N987        N  0.34510746  0.24870055  0.15000758    -0.41600
N988        N  0.22095643  0.20686831  0.09620983    -0.43000
H989        H  0.27726777  0.18669197  0.10731602     0.13100
H990        H  0.28989940  0.26887708  0.13529564     0.09600
H991        H  0.22694245  0.24136450  0.14763016     0.10700
H992        H  0.22745597  0.31452075  0.09910227     0.16500
C993        C  0.12580863  0.03142279  0.35555163    -0.01700
C994        C  0.14539254  0.01638443  0.35898765     0.06900
C995        C  0.16788386  0.02637848  0.36193985    -0.07700
C996        C  0.17123272  0.05090765  0.36071273     0.04300
C997        C  0.15174335  0.06599251  0.35623381    -0.14900
C998        C  0.12911802  0.05594512  0.35413642    -0.08200
C999        C  0.14327515  0.99019764  0.35751026     0.05300
C1000       C  0.13615126  0.98003310  0.33604356    -0.09400
C1001       C  0.13653538  0.95546311  0.33275069     0.00300
C1002       C  0.14419316  0.94040358  0.35133469     0.00100
C1003       C  0.15044070  0.95072512  0.37315089    -0.12900
C1004       C  0.15009271  0.97531506  0.37631583     0.00600
C1005       C  0.13024787  0.94658671  0.30964052     0.39900
C1006       C  0.15693089  0.98490825  0.39897549     0.36500
C1007       C  0.10216225  0.02208962  0.35350260     0.36200
C1008       C  0.19505844  0.05982238  0.36272085     0.37000
N1009       N  0.12523694  0.93959156  0.29106705    -0.43800
N1010       N  0.16242840  0.99263364  0.41711428    -0.44200
N1011       N  0.21417228  0.06690222  0.36434583    -0.41600
N1012       N  0.08319271  0.01463205  0.35192148    -0.43000
H1013       H  0.11394916  0.06728867  0.35118623     0.13100
H1014       H  0.18304637  0.01486471  0.36437649     0.09600
H1015       H  0.13112762  0.99144911  0.32145141     0.10700
H1016       H  0.15604429  0.93959833  0.38774311     0.16500
C1017       C  0.22497891  0.24904857  0.35663848    -0.01700
C1018       C  0.24606421  0.24512673  0.36931542     0.06900
C1019       C  0.24882523  0.22416132  0.38221351    -0.07700
C1020       C  0.23105552  0.20694318  0.38245960     0.04300
C1021       C  0.21001467  0.21043151  0.36924461    -0.14900
C1022       C  0.20720585  0.23176233  0.35664162    -0.08200
C1023       C  0.26546412  0.26274137  0.36959298     0.05300
C1024       C  0.26328260  0.28287141  0.38385085    -0.09400
C1025       C  0.28134947  0.29978503  0.38486490     0.00300
C1026       C  0.30212727  0.29672512  0.37123757     0.00100
C1027       C  0.30435127  0.27621556  0.35729732    -0.12900
C1028       C  0.28623714  0.25934444  0.35635397     0.00600
C1029       C  0.27824948  0.31969576  0.40056026     0.39900
C1030       C  0.28902194  0.23898248  0.34119046     0.36500
C1031       C  0.22144518  0.27048005  0.34315844     0.36200
C1032       C  0.23472002  0.18630702  0.39710112     0.37000
N1033       N  0.27573344  0.33560481  0.41318939    -0.43800
N1034       N  0.29116978  0.22267991  0.32900361    -0.44200
N1035       N  0.23765983  0.16982535  0.40890947    -0.41600
N1036       N  0.21864897  0.28767933  0.33238326    -0.43000
H1037       H  0.19129090  0.23479822  0.34639595     0.13100
H1038       H  0.26490525  0.22134284  0.39227547     0.09600
H1039       H  0.24744943  0.28527618  0.39432157     0.10700
H1040       H  0.31999388  0.27362691  0.34659195     0.16500
C1041       C  0.28521093  0.11714191  0.23921060    -0.01700
C1042       C  0.26516091  0.13193128  0.23868486     0.06900
C1043       C  0.26230100  0.14791775  0.21988475    -0.07700
C1044       C  0.27908141  0.14930557  0.20170858     0.04300
C1045       C  0.29909157  0.13432952  0.20210966    -0.14900
C1046       C  0.30196643  0.11847617  0.22105740    -0.08200
C1047       C  0.24717106  0.13129095  0.25779161     0.05300
C1048       C  0.25291553  0.14037192  0.28011262    -0.09400
C1049       C  0.23624785  0.14076247  0.29843066     0.00300
C1050       C  0.21313964  0.13167095  0.29460152     0.00100
C1051       C  0.20767295  0.12232700  0.27214524    -0.12900
C1052       C  0.22438051  0.12213727  0.25387471     0.00600
C1053       C  0.24335116  0.15143044  0.32054300     0.39900
C1054       C  0.21789367  0.11218478  0.23127476     0.36500
C1055       C  0.28875675  0.10020993  0.25801290     0.36200
C1056       C  0.27604484  0.16719337  0.18370143     0.37000
N1057       N  0.24915358  0.16003265  0.33819237    -0.43800
N1058       N  0.21282188  0.10420781  0.21312319    -0.44200
N1059       N  0.27360496  0.18170276  0.16944979    -0.41600
N1060       N  0.29159277  0.08661559  0.27306749    -0.43000
H1061       H  0.31728472  0.10698356  0.22159959     0.13100
H1062       H  0.24710745  0.15958798  0.21964370     0.09600
H1063       H  0.27042095  0.14755548  0.28309202     0.10700
H1064       H  0.19023916  0.11519159  0.26873269     0.16500
C1065       C  0.11237166  0.24176768  0.27621049    -0.01700
C1066       C  0.12668552  0.24160346  0.25591801     0.06900
C1067       C  0.14223919  0.22271306  0.25207811    -0.07700
C1068       C  0.14426030  0.20434623  0.26858668     0.04300
C1069       C  0.13066049  0.20495613  0.28955692    -0.14900
C1070       C  0.11456992  0.22362375  0.29293071    -0.08200
C1071       C  0.12682328  0.26163526  0.23911366     0.05300
C1072       C  0.14117104  0.28118462  0.24408627    -0.09400
C1073       C  0.14327039  0.29983337  0.22792094     0.00300
C1074       C  0.13095358  0.29887422  0.20608124     0.00100
C1075       C  0.11611282  0.27941613  0.20153516    -0.12900
C1076       C  0.11384938  0.26098378  0.21791218     0.00600
C1077       C  0.15890722  0.31910823  0.23398270     0.39900
C1078       C  0.09802607  0.24164332  0.21274000     0.36500
C1079       C  0.09534959  0.26037284  0.28015545     0.36200
C1080       C  0.16130049  0.18587005  0.26404033     0.37000
N1081       N  0.17140938  0.33450142  0.23904452    -0.43800
N1082       N  0.08521530  0.22620787  0.20871052    -0.44200
N1083       N  0.17496466  0.17111746  0.26024703    -0.41600
N1084       N  0.08159686  0.27521614  0.28319609    -0.43000
H1085       H  0.10374887  0.22408697  0.30871154     0.13100
H1086       H  0.15322218  0.22264386  0.23639897     0.09600
H1087       H  0.15110829  0.28163059  0.26050697     0.10700
H1088       H  0.10620572  0.27857830  0.18512165     0.16500
C1089       C  0.98049343  0.34064140  0.13264137    -0.01700
C1090       C  0.99262150  0.36160254  0.13858547     0.06900
C1091       C  0.97955706  0.38203983  0.14385702    -0.07700
C1092       C  0.95476866  0.38166641  0.14407998     0.04300
C1093       C  0.94254893  0.36043225  0.13874246    -0.14900
C1094       C  0.95578939  0.34027582  0.13258095    -0.08200
C1095       C  0.01886416  0.36210698  0.14023485     0.05300
C1096       C  0.03237941  0.35741257  0.12001056    -0.09400
C1097       C  0.05705351  0.35571337  0.12125723     0.00300
C1098       C  0.06875736  0.35886705  0.14320860     0.00100
C1099       C  0.05515056  0.36449615  0.16323993    -0.12900
C1100       C  0.03049073  0.36600360  0.16196261     0.00600
C1101       C  0.06979192  0.35090636  0.09968251     0.39900
C1102       C  0.01741911  0.37037977  0.18342716     0.36500
C1103       C  0.99299194  0.31888830  0.12780474     0.36200
C1104       C  0.94248197  0.40335194  0.14968221     0.37000
N1105       N  0.08001355  0.34702605  0.08240566    -0.43800
N1106       N  0.00691190  0.37386383  0.20061220    -0.44200
N1107       N  0.93272169  0.42077722  0.15419506    -0.41600
N1108       N  0.00299588  0.30144081  0.12398792    -0.43000
H1109       H  0.94685415  0.32376319  0.12864513     0.13100
H1110       H  0.98885861  0.39835654  0.14817488     0.09600
H1111       H  0.02349129  0.35467876  0.10314379     0.10700
H1112       H  0.06373058  0.36689646  0.18029485     0.16500
C1113       C  0.97712359  0.14555206  0.37309958    -0.01700
C1114       C  0.99261923  0.14472994  0.35358947     0.06900
C1115       C  0.98310390  0.14487518  0.33065592    -0.07700
C1116       C  0.95869551  0.14660696  0.32686846     0.04300
C1117       C  0.94314886  0.14802128  0.34635770    -0.14900
C1118       C  0.95267610  0.14719273  0.36932362    -0.08200
C1119       C  0.01882151  0.14463312  0.35623153     0.05300
C1120       C  0.03174581  0.12564515  0.34684636    -0.09400
C1121       C  0.05649497  0.12634898  0.34561825     0.00300
C1122       C  0.06892013  0.14642516  0.35408316     0.00100
C1123       C  0.05588221  0.16488511  0.36455124    -0.12900
C1124       C  0.03114793  0.16429780  0.36538857     0.00600
C1125       C  0.06842736  0.10632110  0.33521211     0.39900
C1126       C  0.01882516  0.18489051  0.37412067     0.36500
C1127       C  0.98580102  0.14468272  0.39710851     0.36200
C1128       C  0.95032509  0.14836137  0.30280161     0.37000
N1129       N  0.07779375  0.09024169  0.32670050    -0.43800
N1130       N  0.00899194  0.20143667  0.38107351    -0.44200
N1131       N  0.94373054  0.14987513  0.28347766    -0.41600
N1132       N  0.99260747  0.14412833  0.41641149    -0.43000
H1133       H  0.94093255  0.14779165  0.38441358     0.13100
H1134       H  0.99492347  0.14438880  0.31557123     0.09600
H1135       H  0.02236635  0.11050260  0.33975573     0.10700
H1136       H  0.06492048  0.18050727  0.37100367     0.16500
C1137       C  0.89243629  0.24561471  0.27201212    -0.01700
C1138       C  0.87818413  0.24461816  0.25158251     0.06900
C1139       C  0.86297700  0.22533253  0.24831638    -0.07700
C1140       C  0.86160247  0.20721422  0.26518922     0.04300
C1141       C  0.87585848  0.20816119  0.28578659    -0.14900
C1142       C  0.89109028  0.22755331  0.28894500    -0.08200
C1143       C  0.87862933  0.26361529  0.23346428     0.05300
C1144       C  0.88870986  0.25889653  0.21134259    -0.09400
C1145       C  0.88892241  0.27614843  0.19352282     0.00300
C1146       C  0.87868343  0.29861806  0.19770880     0.00100
C1147       C  0.86890655  0.30334586  0.22005946    -0.12900
C1148       C  0.86868896  0.28606659  0.23780849     0.00600
C1149       C  0.90037674  0.27051146  0.17143428     0.39900
C1150       C  0.85745485  0.29148169  0.26006136     0.36500
C1151       C  0.90886560  0.26478998  0.27572746     0.36200
C1152       C  0.84461273  0.18852917  0.26133639     0.37000
N1153       N  0.90962399  0.26601159  0.15376370    -0.43800
N1154       N  0.84842669  0.29580895  0.27788508    -0.44200
N1155       N  0.83091226  0.17366999  0.25814315    -0.41600
N1156       N  0.92204361  0.28016190  0.27866107    -0.43000
H1157       H  0.90220113  0.22846314  0.30453776     0.13100
H1158       H  0.85187294  0.22465582  0.23270179     0.09600
H1159       H  0.89650614  0.24166557  0.20804006     0.10700
H1160       H  0.86077626  0.32039627  0.22349228     0.16500
C1161       C  0.53166888  0.33701119  0.35892218    -0.01700
C1162       C  0.51967986  0.35851293  0.35501163     0.06900
C1163       C  0.53274730  0.37895141  0.34986718    -0.07700
C1164       C  0.55744044  0.37808323  0.34787824     0.04300
C1165       C  0.56950139  0.35628399  0.35082130    -0.14900
C1166       C  0.55630786  0.33605232  0.35685983    -0.08200
C1167       C  0.49345345  0.35952609  0.35433913     0.05300
C1168       C  0.48049083  0.35805809  0.37542539    -0.09400
C1169       C  0.45567384  0.35752552  0.37504392     0.00300
C1170       C  0.44346612  0.35821373  0.35318239     0.00100
C1171       C  0.45660627  0.36040234  0.33220616    -0.12900
C1172       C  0.48130764  0.36101809  0.33263269     0.00600
C1173       C  0.44322077  0.35697566  0.39729996     0.39900
C1174       C  0.49389625  0.36227864  0.31047767     0.36500
C1175       C  0.51894122  0.31547819  0.36405812     0.36200
C1176       C  0.56986417  0.39992451  0.34328763     0.37000
N1177       N  0.43319736  0.35669000  0.41511734    -0.43800
N1178       N  0.50404934  0.36327563  0.29276524    -0.44200
N1179       N  0.57980161  0.41745805  0.33970796    -0.41600
N1180       N  0.50872035  0.29823125  0.36816056    -0.43000
H1181       H  0.56515530  0.31920100  0.35924060     0.13100
H1182       H  0.52355767  0.39555533  0.34706008     0.09600
H1183       H  0.48980090  0.35720309  0.39216929     0.10700
H1184       H  0.44759605  0.36086679  0.31528077     0.16500
C1185       C  0.73029889  0.26548694  0.38687551    -0.01700
C1186       C  0.74990133  0.26557574  0.37145460     0.06900
C1187       C  0.75157414  0.28337752  0.35421676    -0.07700
C1188       C  0.73420341  0.30089057  0.35213879     0.04300
C1189       C  0.71444983  0.30065860  0.36739811    -0.14900
C1190       C  0.71273886  0.28283472  0.38462524    -0.08200
C1191       C  0.76800660  0.24644405  0.37177763     0.05300
C1192       C  0.76073126  0.22299710  0.36828764    -0.09400
C1193       C  0.77714412  0.20453233  0.36662170     0.00300
C1194       C  0.80171928  0.20943032  0.36793618     0.00100
C1195       C  0.80887587  0.23297780  0.37189622    -0.12900
C1196       C  0.79234856  0.25133279  0.37392768     0.00600
C1197       C  0.76794739  0.18100430  0.36276688     0.39900
C1198       C  0.80082054  0.27501390  0.37843866     0.36500
C1199       C  0.72794981  0.24801208  0.40536171     0.36200
C1200       C  0.73653851  0.31807031  0.33335575     0.37000
N1201       N  0.76042055  0.16223208  0.35957327    -0.43800
N1202       N  0.80762855  0.29398509  0.38203259    -0.44200
N1203       N  0.73849296  0.33173810  0.31823744    -0.41600
N1204       N  0.72600285  0.23401138  0.42017426    -0.43000
H1205       H  0.69775059  0.28259219  0.39651463     0.13100
H1206       H  0.76624936  0.28325210  0.34194198     0.09600
H1207       H  0.74207146  0.21915486  0.36630537     0.10700
H1208       H  0.82749296  0.23717480  0.37339647     0.16500
C1209       C  0.72340404  0.36863925  0.24770973    -0.01700
C1210       C  0.74587271  0.37821471  0.25255409     0.06900
C1211       C  0.75034682  0.38777898  0.27498567    -0.07700
C1212       C  0.73304508  0.38746639  0.29270978     0.04300
C1213       C  0.71052662  0.37734299  0.28810886    -0.14900
C1214       C  0.70603789  0.36833676  0.26531718    -0.08200
C1215       C  0.76499679  0.37806020  0.23451815     0.05300
C1216       C  0.76190882  0.39081986  0.21344336    -0.09400
C1217       C  0.77907224  0.39033830  0.19561155     0.00300
C1218       C  0.80005307  0.37704737  0.19883523     0.00100
C1219       C  0.80326524  0.36467062  0.22019763    -0.12900
C1220       C  0.78595089  0.36494802  0.23786216     0.00600
C1221       C  0.77479264  0.40403101  0.17446004     0.39900
C1222       C  0.78966019  0.35084212  0.25885102     0.36500
C1223       C  0.71806437  0.35812398  0.22505740     0.36200
C1224       C  0.73910727  0.39781019  0.31526859     0.37000
N1225       N  0.77130204  0.41498582  0.15750855    -0.43800
N1226       N  0.79260519  0.33949181  0.27564282    -0.44200
N1227       N  0.74410050  0.40609652  0.33330964    -0.41600
N1228       N  0.71386691  0.34969775  0.20688605    -0.43000
H1229       H  0.68907232  0.36041211  0.26130509     0.13100
H1230       H  0.76752144  0.39542358  0.27868006     0.09600
H1231       H  0.74592600  0.40109592  0.21088466     0.10700
H1232       H  0.81908522  0.35417013  0.22287599     0.16500
C1233       C  0.53333850  0.12736821  0.14449768    -0.01700
C1234       C  0.51928189  0.14704787  0.13834427     0.06900
C1235       C  0.53038999  0.16826991  0.13184216    -0.07700
C1236       C  0.55508114  0.17027593  0.13183947     0.04300
C1237       C  0.56925888  0.15066395  0.13846535    -0.14900
C1238       C  0.55801600  0.12929560  0.14450552    -0.08200
C1239       C  0.49302031  0.14632330  0.13988018     0.05300
C1240       C  0.48242105  0.14224697  0.16192851    -0.09400
C1241       C  0.45781300  0.14280013  0.16453454     0.00300
C1242       C  0.44322228  0.14758900  0.14473981     0.00100
C1243       C  0.45389202  0.15134943  0.12261306    -0.12900
C1244       C  0.47850669  0.15069928  0.12005056     0.00600
C1245       C  0.44822132  0.13986795  0.18800707     0.39900
C1246       C  0.48846821  0.15444622  0.09687054     0.36500
C1247       C  0.52281924  0.10498602  0.15085618     0.36200
C1248       C  0.56514851  0.19311400  0.12637213     0.37000
N1249       N  0.44054915  0.13758375  0.20682591    -0.43800
N1250       N  0.49646933  0.15746504  0.07829864    -0.44200
N1251       N  0.57314299  0.21146009  0.12205244    -0.41600
N1252       N  0.51434372  0.08707990  0.15599649    -0.43000
H1253       H  0.56853554  0.11405450  0.14951870     0.13100
H1254       H  0.51967626  0.18356807  0.12744270     0.09600
H1255       H  0.49348450  0.13925402  0.17731351     0.10700
H1256       H  0.44296722  0.15499353  0.10726938     0.16500
C1257       C  0.72601566  0.24610157  0.11483142    -0.01700
C1258       C  0.74975103  0.24106034  0.12038775     0.06900
C1259       C  0.75615809  0.21774555  0.12596651    -0.07700
C1260       C  0.73927017  0.19957131  0.12648415     0.04300
C1261       C  0.71513527  0.20469832  0.12171505    -0.14900
C1262       C  0.70902356  0.22812051  0.11565834    -0.08200
C1263       C  0.76792509  0.26008083  0.12105729     0.05300
C1264       C  0.76558187  0.27835496  0.13768367    -0.09400
C1265       C  0.78185817  0.29699761  0.13858874     0.00300
C1266       C  0.80102036  0.29757511  0.12258890     0.00100
C1267       C  0.80365574  0.27896759  0.10631822    -0.12900
C1268       C  0.78726662  0.26038129  0.10537038     0.00600
C1269       C  0.77901408  0.31467330  0.15681409     0.39900
C1270       C  0.79025202  0.24220309  0.08770373     0.36500
C1271       C  0.71878848  0.26957034  0.10772209     0.36200
C1272       C  0.74749476  0.17604443  0.13215404     0.37000
N1273       N  0.77668508  0.32870910  0.17152205    -0.43800
N1274       N  0.79260974  0.22763070  0.07353360    -0.44200
N1275       N  0.75435976  0.15723124  0.13647012    -0.41600
N1276       N  0.71313193  0.28839304  0.10194609    -0.43000
H1277       H  0.69086318  0.23252089  0.11146131     0.13100
H1278       H  0.77442954  0.21378876  0.13017004     0.09600
H1279       H  0.75099933  0.27797065  0.15006573     0.10700
H1280       H  0.81834054  0.27914931  0.09405416     0.16500
C1281       C  0.75117157  0.13295956  0.21238670    -0.01700
C1282       C  0.74624404  0.12319844  0.23471782     0.06900
C1283       C  0.72377122  0.11394648  0.23930836    -0.07700
C1284       C  0.70598481  0.11477147  0.22204515     0.04300
C1285       C  0.71062183  0.12525833  0.19978270    -0.14900
C1286       C  0.73345899  0.13387774  0.19516407    -0.08200
C1287       C  0.76390573  0.12421880  0.25395457     0.05300
C1288       C  0.76368182  0.14388020  0.26899815    -0.09400
C1289       C  0.78122271  0.14684404  0.28616719     0.00300
C1290       C  0.79915102  0.12964415  0.28873094     0.00100
C1291       C  0.79935726  0.10993292  0.27361758    -0.12900
C1292       C  0.78188643  0.10712590  0.25625908     0.00600
C1293       C  0.78158182  0.16866185  0.29941730     0.39900
C1294       C  0.78287225  0.08682747  0.24081245     0.36500
C1295       C  0.77412234  0.14274831  0.20706900     0.36200
C1296       C  0.68338991  0.10435086  0.22757457     0.37000
N1297       N  0.78198264  0.18644605  0.30953294    -0.43800
N1298       N  0.78367813  0.07057217  0.22840212    -0.44200
N1299       N  0.66531562  0.09595155  0.23208516    -0.41600
N1300       N  0.79255266  0.15055612  0.20294122    -0.43000
H1301       H  0.73733237  0.14200978  0.17829016     0.13100
H1302       H  0.72007002  0.10632781  0.25651680     0.09600
H1303       H  0.75020273  0.15735460  0.26673846     0.10700
H1304       H  0.81316384  0.09672970  0.27540400     0.16500
C1305       C  0.61769180  0.28119575  0.25360102    -0.01700
C1306       C  0.63075979  0.25996039  0.25514239     0.06900
C1307       C  0.64551661  0.25628448  0.27476781    -0.07700
C1308       C  0.64756528  0.27333983  0.29261902     0.04300
C1309       C  0.63460685  0.29473766  0.29104430    -0.14900
C1310       C  0.61972337  0.29830973  0.27142201    -0.08200
C1311       C  0.63068699  0.24208028  0.23579306     0.05300
C1312       C  0.63839328  0.24886742  0.21323011    -0.09400
C1313       C  0.64038332  0.23236767  0.19485127     0.00300
C1314       C  0.63451431  0.20828603  0.19886123     0.00100
C1315       C  0.62649398  0.20166521  0.22148986    -0.12900
C1316       C  0.62462318  0.21820928  0.23983217     0.00600
C1317       C  0.64946912  0.24071817  0.17250360     0.39900
C1318       C  0.61637718  0.21021230  0.26262914     0.36500
C1319       C  0.60196269  0.28579362  0.23399522     0.36200
C1320       C  0.66413343  0.26885837  0.31156646     0.37000
N1321       N  0.65681232  0.24752700  0.15466650    -0.43800
N1322       N  0.60987757  0.20369558  0.28089651    -0.44200
N1323       N  0.67749833  0.26521207  0.32665018    -0.41600
N1324       N  0.58940535  0.28956801  0.21826587    -0.43000
H1325       H  0.60955618  0.31451260  0.27001298     0.13100
H1326       H  0.65601847  0.24026845  0.27580293     0.09600
H1327       H  0.64352029  0.26708666  0.21014050     0.10700
H1328       H  0.62168950  0.18343901  0.22498733     0.16500
C1329       C  0.52356766  0.64476643  0.32994855    -0.01700
C1330       C  0.51235002  0.64738688  0.35202838     0.06900
C1331       C  0.52617908  0.64989915  0.37248347    -0.07700
C1332       C  0.55090828  0.65042464  0.37111802     0.04300
C1333       C  0.56216867  0.64863223  0.34886021    -0.14900
C1334       C  0.54822774  0.64535058  0.32853946    -0.08200
C1335       C  0.48619854  0.64810304  0.35388232     0.05300
C1336       C  0.47311683  0.62779908  0.34824334    -0.09400
C1337       C  0.44837645  0.62839980  0.34760892     0.00300
C1338       C  0.43626966  0.64969485  0.35282384     0.00100
C1339       C  0.44947467  0.66968478  0.35954668    -0.12900
C1340       C  0.47419401  0.66910154  0.35991653     0.00600
C1341       C  0.43597073  0.60686124  0.34171106     0.39900
C1342       C  0.48685717  0.69065728  0.36515794     0.36500
C1343       C  0.51010287  0.64239007  0.30836433     0.36200
C1344       C  0.56424516  0.65207147  0.39285953     0.37000
N1345       N  0.42606307  0.58958507  0.33697592    -0.43800
N1346       N  0.49697705  0.70797110  0.36925000    -0.44200
N1347       N  0.57493591  0.65323971  0.41028651    -0.41600
N1348       N  0.49928618  0.64046850  0.29108954    -0.43000
H1349       H  0.55657177  0.64401444  0.31135312     0.13100
H1350       H  0.51759901  0.65151068  0.38952648     0.09600
H1351       H  0.48232213  0.61155911  0.34386306     0.10700
H1352       H  0.44052755  0.68617959  0.36348568     0.16500
C1353       C  0.66195305  0.52843823  0.36306303    -0.01700
C1354       C  0.64266127  0.51553387  0.35400222     0.06900
C1355       C  0.62302828  0.52786865  0.34513304    -0.07700
C1356       C  0.62293504  0.55266072  0.34388262     0.04300
C1357       C  0.64297971  0.56565270  0.35150591    -0.14900
C1358       C  0.66197297  0.55316360  0.36174589    -0.08200
C1359       C  0.64333180  0.48926185  0.35222885     0.05300
C1360       C  0.64565923  0.47556230  0.37281697    -0.09400
C1361       C  0.64816840  0.45090260  0.37154420     0.00300
C1362       C  0.64782845  0.43944572  0.34928114     0.00100
C1363       C  0.64468300  0.45317527  0.32878366    -0.12900
C1364       C  0.64277540  0.47783406  0.33005415     0.00600
C1365       C  0.65096236  0.43788699  0.39336971     0.39900
C1366       C  0.64166361  0.49112984  0.30825191     0.36500
C1367       C  0.68247974  0.51672329  0.37277712     0.36200
C1368       C  0.60198312  0.56406531  0.33473743     0.37000
N1369       N  0.65332084  0.42746685  0.41084545    -0.43800
N1370       N  0.64089033  0.50183532  0.29081440    -0.44200
N1371       N  0.58512827  0.57313311  0.32746540    -0.41600
N1372       N  0.69888095  0.50736451  0.38068490    -0.43000
H1373       H  0.67742071  0.56262221  0.36797483     0.13100
H1374       H  0.60790948  0.51801574  0.33868575     0.09600
H1375       H  0.64593874  0.48423089  0.38990230     0.10700
H1376       H  0.64472729  0.44473034  0.31158150     0.16500
C1377       C  0.52708899  0.85321154  0.11666981    -0.01700
C1378       C  0.51361205  0.86251992  0.13547071     0.06900
C1379       C  0.52530311  0.87085548  0.15566043    -0.07700
C1380       C  0.54990919  0.86949868  0.15771418     0.04300
C1381       C  0.56354463  0.85946021  0.13918435    -0.14900
C1382       C  0.55175699  0.85171429  0.11865834    -0.08200
C1383       C  0.48731275  0.86146245  0.13565112     0.05300
C1384       C  0.47643357  0.83922326  0.13432460    -0.09400
C1385       C  0.45195762  0.83682216  0.13666090     0.00300
C1386       C  0.43766554  0.85704757  0.14046317     0.00100
C1387       C  0.44856713  0.87938818  0.14159777    -0.12900
C1388       C  0.47313956  0.88173252  0.13918391     0.00600
C1389       C  0.44230183  0.81316371  0.13652759     0.39900
C1390       C  0.48340059  0.90509847  0.14026058     0.36500
C1391       C  0.51596237  0.84506331  0.09517332     0.36200
C1392       C  0.56027801  0.87744091  0.17968202     0.37000
N1393       N  0.43460221  0.79419447  0.13648584    -0.43800
N1394       N  0.49165065  0.92381328  0.14115021    -0.44200
N1395       N  0.56853014  0.88381210  0.19730197    -0.41600
N1396       N  0.50699923  0.83853659  0.07796640    -0.43000
H1397       H  0.56178717  0.84422007  0.10416394     0.13100
H1398       H  0.51503257  0.87765014  0.17034012     0.09600
H1399       H  0.48724605  0.82352008  0.13222943     0.10700
H1400       H  0.43788354  0.89505455  0.14436770     0.16500
C1401       C  0.62328815  0.97475828  0.13450424    -0.01700
C1402       C  0.64328654  0.98893859  0.13009980     0.06900
C1403       C  0.66528174  0.97805488  0.12683522    -0.07700
C1404       C  0.66780289  0.95349528  0.12877543     0.04300
C1405       C  0.64797834  0.93926676  0.13442508    -0.14900
C1406       C  0.62578316  0.95017379  0.13686194    -0.08200
C1407       C  0.64240347  0.01517550  0.13158073     0.05300
C1408       C  0.63733545  0.02550268  0.15350611    -0.09400
C1409       C  0.63952018  0.04992805  0.15694421     0.00300
C1410       C  0.64690656  0.06466846  0.13806762     0.00100
C1411       C  0.65124602  0.05430006  0.11586507    -0.12900
C1412       C  0.64901374  0.02980281  0.11251131     0.00600
C1413       C  0.63551915  0.05893456  0.18048517     0.39900
C1414       C  0.65359397  0.02002267  0.08939333     0.36500
C1415       C  0.60002879  0.98505568  0.13633929     0.36200
C1416       C  0.69124377  0.94371615  0.12617274     0.37000
N1417       N  0.63227407  0.06596242  0.19941526    -0.43800
N1418       N  0.65719252  0.01215132  0.07085998    -0.44200
N1419       N  0.71004008  0.93595326  0.12401350    -0.41600
N1420       N  0.58135256  0.99328978  0.13758106    -0.43000
H1421       H  0.61035829  0.93949011  0.14065780     0.13100
H1422       H  0.68073167  0.98891036  0.12364216     0.09600
H1423       H  0.63261415  0.01426224  0.16830511     0.10700
H1424       H  0.65663653  0.06531333  0.10113928     0.16500
C1425       C  0.61425831  0.75917211  0.21165906    -0.01700
C1426       C  0.62457404  0.76200695  0.23411973     0.06900
C1427       C  0.63577148  0.78337483  0.23978788    -0.07700
C1428       C  0.63725930  0.80176751  0.22321857     0.04300
C1429       C  0.62728828  0.79888334  0.20038843    -0.14900
C1430       C  0.61569746  0.77748003  0.19503325    -0.08200
C1431       C  0.62465790  0.74257451  0.25170802     0.05300
C1432       C  0.64038188  0.72364998  0.24865895    -0.09400
C1433       C  0.64182766  0.70544857  0.26543712     0.00300
C1434       C  0.62725465  0.70607641  0.28573632     0.00100
C1435       C  0.61136647  0.72499567  0.28856146    -0.12900
C1436       C  0.60990039  0.74309141  0.27170041     0.00600
C1437       C  0.65928960  0.68712376  0.26194722     0.39900
C1438       C  0.59293310  0.76186273  0.27507118     0.36500
C1439       C  0.60194027  0.73768696  0.20542012     0.36200
C1440       C  0.65008205  0.82282435  0.22990860     0.37000
N1441       N  0.67335924  0.67253703  0.25909148    -0.43800
N1442       N  0.57926331  0.77686235  0.27769695    -0.44200
N1443       N  0.66039827  0.83964303  0.23535793    -0.41600
N1444       N  0.59200861  0.72047669  0.20051259    -0.43000
H1445       H  0.60773733  0.77497707  0.17777673     0.13100
H1446       H  0.64380318  0.78546868  0.25707256     0.09600
H1447       H  0.65186117  0.72337125  0.23334795     0.10700
H1448       H  0.59999149  0.72559848  0.30393954     0.16500
C1449       C  0.87854881  0.53203882  0.13658906    -0.01700
C1450       C  0.85833739  0.51783275  0.13327745     0.06900
C1451       C  0.83601838  0.52851451  0.13270645    -0.07700
C1452       C  0.83350207  0.55292028  0.13602064     0.04300
C1453       C  0.85372345  0.56721210  0.13991446    -0.14900
C1454       C  0.87612595  0.55650115  0.13992638    -0.08200
C1455       C  0.85968382  0.49160486  0.13360848     0.05300
C1456       C  0.86633838  0.48061041  0.15475992    -0.09400
C1457       C  0.86562584  0.45601237  0.15718564     0.00300
C1458       C  0.85831169  0.44164852  0.13792088     0.00100
C1459       C  0.85203976  0.45281041  0.11650498    -0.12900
C1460       C  0.85259021  0.47756277  0.11427381     0.00600
C1461       C  0.87119922  0.44641668  0.18021217     0.39900
C1462       C  0.84582998  0.48819421  0.09204269     0.36500
C1463       C  0.90192412  0.52182977  0.13661680     0.36200
C1464       C  0.80981584  0.56245135  0.13679052     0.37000
N1465       N  0.87560172  0.43886319  0.19873108    -0.43800
N1466       N  0.84042853  0.49674689  0.07423300    -0.44200
N1467       N  0.79084495  0.57006864  0.13746131    -0.41600
N1468       N  0.92064581  0.51360136  0.13657471    -0.43000
H1469       H  0.89176988  0.56724019  0.14254603     0.13100
H1470       H  0.82042302  0.51757532  0.13065104     0.09600
H1471       H  0.87132706  0.49143265  0.16978878     0.10700
H1472       H  0.84645145  0.44223845  0.10153234     0.16500
C1473       C  0.02569258  0.66526353  0.13430940    -0.01700
C1474       C  0.01396659  0.64385624  0.13942910     0.06900
C1475       C  0.02736726  0.62373978  0.14505104    -0.07700
C1476       C  0.05208009  0.62483102  0.14633015     0.04300
C1477       C  0.06392872  0.64646724  0.14161868    -0.14900
C1478       C  0.05036881  0.66634931  0.13523045    -0.08200
C1479       C  0.98772599  0.64254979  0.13991003     0.05300
C1480       C  0.97489384  0.64764191  0.11926648    -0.09400
C1481       C  0.95018114  0.64925896  0.11963596     0.00300
C1482       C  0.93780339  0.64571778  0.14110232     0.00100
C1483       C  0.95072439  0.63924067  0.16140157    -0.12900
C1484       C  0.97538306  0.63768842  0.16098797     0.00600
C1485       C  0.93816690  0.65440467  0.09767300     0.39900
C1486       C  0.98762636  0.63226694  0.18276219     0.36500
C1487       C  0.01272821  0.68671143  0.12926682     0.36200
C1488       C  0.06459504  0.60340282  0.15251894     0.37000
N1489       N  0.92863998  0.65848789  0.08000690    -0.43800
N1490       N  0.99737081  0.62786055  0.20022739    -0.44200
N1491       N  0.07452636  0.58621176  0.15757951    -0.41600
N1492       N  0.00228484  0.70387333  0.12528157    -0.43000
H1493       H  0.05896963  0.68312892  0.13179799     0.13100
H1494       H  0.01842848  0.60719961  0.14879308     0.09600
H1495       H  0.98430122  0.65086347  0.10290283     0.10700
H1496       H  0.94165702  0.63629549  0.17800320     0.16500
C1497       C  0.74451655  0.63935331  0.27620274    -0.01700
C1498       C  0.74030961  0.62819226  0.25433319     0.06900
C1499       C  0.71877302  0.61655369  0.25058523    -0.07700
C1500       C  0.70128195  0.61626295  0.26812080     0.04300
C1501       C  0.70516018  0.62803053  0.28994181    -0.14900
C1502       C  0.72707057  0.63918510  0.29373458    -0.08200
C1503       C  0.75818571  0.62872429  0.23514101     0.05300
C1504       C  0.77918158  0.61585250  0.23790750    -0.09400
C1505       C  0.79702069  0.61683851  0.22078397     0.00300
C1506       C  0.79401991  0.63107376  0.20034868     0.00100
C1507       C  0.77265834  0.64350468  0.19743189    -0.12900
C1508       C  0.75486333  0.64246693  0.21459567     0.00600
C1509       C  0.81786705  0.60254245  0.22445752     0.39900
C1510       C  0.73367283  0.65629144  0.21113979     0.36500
C1511       C  0.76633907  0.65179891  0.28069949     0.36200
C1512       C  0.67981923  0.60331204  0.26330620     0.37000
N1513       N  0.83453845  0.59104314  0.22742211    -0.43800
N1514       N  0.71670308  0.66739184  0.20837959    -0.44200
N1515       N  0.66264823  0.59288713  0.25944835    -0.41600
N1516       N  0.78386050  0.66175323  0.28418022    -0.43000
H1517       H  0.73040227  0.64840320  0.31020249     0.13100
H1518       H  0.71564695  0.60767965  0.23388575     0.09600
H1519       H  0.78164709  0.60507117  0.25357995     0.10700
H1520       H  0.77003040  0.65452471  0.18195557     0.16500
C1521       C  0.77870822  0.74553930  0.14056620    -0.01700
C1522       C  0.76029757  0.74340533  0.12392189     0.06900
C1523       C  0.76091842  0.72527690  0.10711382    -0.07700
C1524       C  0.77950703  0.70900414  0.10688435     0.04300
C1525       C  0.79796619  0.71091569  0.12368353    -0.14900
C1526       C  0.79750377  0.72943392  0.14022338    -0.08200
C1527       C  0.74076583  0.76064408  0.12301128     0.05300
C1528       C  0.74435909  0.78185883  0.11083261    -0.09400
C1529       C  0.72665328  0.79904971  0.10982628     0.00300
C1530       C  0.70474587  0.79504504  0.12126958     0.00100
C1531       C  0.70104102  0.77335490  0.13291793    -0.12900
C1532       C  0.71889817  0.75623236  0.13394520     0.00600
C1533       C  0.73152778  0.82040064  0.09664218     0.39900
C1534       C  0.71468143  0.73458900  0.14684787     0.36500
C1535       C  0.77825336  0.76372562  0.15848819     0.36200
C1536       C  0.77943447  0.69083359  0.08891483     0.37000
N1537       N  0.73557213  0.83748215  0.08609803    -0.43800
N1538       N  0.71129754  0.71728605  0.15726310    -0.44200
N1539       N  0.77938304  0.67625876  0.07454486    -0.41600
N1540       N  0.77772538  0.77824580  0.17290077    -0.43000
H1541       H  0.81137904  0.73082513  0.15338214     0.13100
H1542       H  0.74687456  0.72391436  0.09413360     0.09600
H1543       H  0.76114791  0.78501427  0.10219596     0.10700
H1544       H  0.68446701  0.77004726  0.14188597     0.16500
C1545       C  0.97457913  0.87118105  0.33287939    -0.01700
C1546       C  0.98692507  0.86274791  0.35285448     0.06900
C1547       C  0.97407391  0.85470733  0.37251016    -0.07700
C1548       C  0.94931436  0.85374371  0.37199647     0.04300
C1549       C  0.93696863  0.86096135  0.35143365    -0.14900
C1550       C  0.94991687  0.87032280  0.33237707    -0.08200
C1551       C  0.01315520  0.86103286  0.35300780     0.05300
C1552       C  0.02675649  0.88152269  0.34965942    -0.09400
C1553       C  0.05141450  0.88026211  0.34790853     0.00300
C1554       C  0.06301094  0.85819401  0.35045104     0.00100
C1555       C  0.04934678  0.83781000  0.35442277    -0.12900
C1556       C  0.02467142  0.83898975  0.35525901     0.00600
C1557       C  0.06424068  0.90188082  0.34335372     0.39900
C1558       C  0.01150766  0.81715481  0.35690519     0.36500
C1559       C  0.98677870  0.87959691  0.31209927     0.36200
C1560       C  0.93716028  0.84553864  0.39287979     0.37000
N1561       N  0.07450605  0.91915565  0.33946211    -0.43800
N1562       N  0.00090952  0.79968281  0.35802627    -0.44200
N1563       N  0.92746471  0.83903995  0.40967203    -0.41600
N1564       N  0.99650977  0.88640638  0.29545560    -0.43000
H1565       H  0.94084463  0.87603849  0.31647782     0.13100
H1566       H  0.98347061  0.84874127  0.38812607     0.09600
H1567       H  0.01800832  0.89850502  0.34789425     0.10700
H1568       H  0.05789567  0.82069226  0.35583321     0.16500
C1569       C  0.88019273  0.97538489  0.35109009    -0.01700
C1570       C  0.86065136  0.99041796  0.35478067     0.06900
C1571       C  0.83815717  0.98044911  0.35771753    -0.07700
C1572       C  0.83477372  0.95595345  0.35639798     0.04300
C1573       C  0.85422620  0.94088438  0.35194318    -0.14900
C1574       C  0.87684788  0.95087041  0.34964985    -0.08200
C1575       C  0.86271112  0.01659733  0.35342326     0.05300
C1576       C  0.87003559  0.02684887  0.33207107    -0.09400
C1577       C  0.86953443  0.05140184  0.32884297     0.00300
C1578       C  0.86153771  0.06627415  0.34730568     0.00100
C1579       C  0.85478652  0.05597245  0.36891082    -0.12900
C1580       C  0.85538181  0.03138592  0.37209983     0.00600
C1581       C  0.87576788  0.06058011  0.30584109     0.39900
C1582       C  0.84834649  0.02169308  0.39464371     0.36500
C1583       C  0.90380428  0.98470172  0.34864146     0.36200
C1584       C  0.81091611  0.94706598  0.35804110     0.37000
N1585       N  0.88069321  0.06791195  0.28738491    -0.43800
N1586       N  0.84271369  0.01385596  0.41268221    -0.44200
N1587       N  0.79175686  0.94005207  0.35930182    -0.41600
N1588       N  0.92274204  0.99213199  0.34666318    -0.43000
H1589       H  0.89193746  0.93950359  0.34645072     0.13100
H1590       H  0.82302242  0.99194953  0.36013986     0.09600
H1591       H  0.87526712  0.01553444  0.31751602     0.10700
H1592       H  0.84880969  0.06713880  0.38328674     0.16500
C1593       C  0.78180256  0.75673070  0.35535375    -0.01700
C1594       C  0.75913397  0.76176430  0.36434793     0.06900
C1595       C  0.75445134  0.78434786  0.37338533    -0.07700
C1596       C  0.77171929  0.80205324  0.37315884     0.04300
C1597       C  0.79448994  0.79724420  0.36383344    -0.14900
C1598       C  0.79923982  0.77434774  0.35525695    -0.08200
C1599       C  0.73997541  0.74379296  0.36439129     0.05300
C1600       C  0.74277753  0.72309606  0.37781633    -0.09400
C1601       C  0.72518396  0.70566922  0.37818829     0.00300
C1602       C  0.70422573  0.70881565  0.36482440     0.00100
C1603       C  0.70131802  0.72982730  0.35179653    -0.12900
C1604       C  0.71890178  0.74721249  0.35148556     0.00600
C1605       C  0.72888095  0.68518908  0.39304438     0.39900
C1606       C  0.71513338  0.76814712  0.33729795     0.36500
C1607       C  0.78728411  0.73386455  0.34536450     0.36200
C1608       C  0.76546552  0.82477242  0.38304774     0.37000
N1609       N  0.73184748  0.66881775  0.40500127    -0.43800
N1610       N  0.71204924  0.78494599  0.32598468    -0.44200
N1611       N  0.76034203  0.84295896  0.39093243    -0.41600
N1612       N  0.79155851  0.71551127  0.33736430    -0.43000
H1613       H  0.81645043  0.77030245  0.34792557     0.13100
H1614       H  0.73713859  0.78815757  0.38062698     0.09600
H1615       H  0.75873619  0.72063978  0.38815628     0.10700
H1616       H  0.68543978  0.73252047  0.34139009     0.16500
C1617       C  0.74766914  0.86460732  0.20994465    -0.01700
C1618       C  0.74343701  0.87513206  0.23212346     0.06900
C1619       C  0.72151873  0.88578767  0.23646485    -0.07700
C1620       C  0.70369065  0.88577413  0.21928619     0.04300
C1621       C  0.70768519  0.87492380  0.19705028    -0.14900
C1622       C  0.72991436  0.86464652  0.19264691    -0.08200
C1623       C  0.76150960  0.87511033  0.25118295     0.05300
C1624       C  0.78255841  0.88778032  0.24795546    -0.09400
C1625       C  0.79987406  0.88839140  0.26569308     0.00300
C1626       C  0.79613385  0.87623420  0.28726041     0.00100
C1627       C  0.77487585  0.86381972  0.29049402    -0.12900
C1628       C  0.75772812  0.86303486  0.27266808     0.00600
C1629       C  0.82091720  0.90219568  0.26149546     0.39900
C1630       C  0.73676091  0.84900830  0.27649821     0.36500
C1631       C  0.76976419  0.85289518  0.20485894     0.36200
C1632       C  0.68172034  0.89743306  0.22499308     0.37000
N1633       N  0.83775182  0.91328676  0.25808442    -0.43800
N1634       N  0.72000188  0.83770050  0.27953890    -0.44200
N1635       N  0.66411582  0.90674164  0.22963662    -0.41600
N1636       N  0.78745832  0.84347828  0.20080956    -0.43000
H1637       H  0.73328935  0.85606526  0.17585588     0.13100
H1638       H  0.71834050  0.89413248  0.25341861     0.09600
H1639       H  0.78537599  0.89732462  0.23157363     0.10700
H1640       H  0.77189345  0.85412928  0.30676559     0.16500
C1641       C  0.87402036  0.78968046  0.24540731    -0.01700
C1642       C  0.88106759  0.76639523  0.25086175     0.06900
C1643       C  0.88824001  0.76093901  0.27392063    -0.07700
C1644       C  0.88733562  0.77794262  0.29187242     0.04300
C1645       C  0.87851373  0.80093387  0.28696638    -0.14900
C1646       C  0.87268138  0.80668535  0.26341672    -0.08200
C1647       C  0.87924053  0.74686031  0.23346707     0.05300
C1648       C  0.89713074  0.74356515  0.21668571    -0.09400
C1649       C  0.89613546  0.72456552  0.20074389     0.00300
C1650       C  0.87694737  0.70854594  0.20152190     0.00100
C1651       C  0.85926577  0.71174926  0.21856040    -0.12900
C1652       C  0.86022624  0.73077611  0.23437848     0.00600
C1653       C  0.91545420  0.72129160  0.18441230     0.39900
C1654       C  0.84130035  0.73376346  0.25120031     0.36500
C1655       C  0.86743005  0.79633154  0.22164270     0.36200
C1656       C  0.89596182  0.77122157  0.31497154     0.37000
N1657       N  0.93098317  0.71851553  0.17142136    -0.43800
N1658       N  0.82617757  0.73629017  0.26470366    -0.44200
N1659       N  0.90301948  0.76578119  0.33341112    -0.41600
N1660       N  0.86226611  0.80180457  0.20259819    -0.43000
H1661       H  0.86634829  0.82427542  0.25912745     0.13100
H1662       H  0.89415443  0.74313857  0.27797795     0.09600
H1663       H  0.91196054  0.75566976  0.21623984     0.10700
H1664       H  0.84435645  0.69973574  0.21910125     0.16500
C1665       C  0.14966613  0.33798962  0.02408239    -0.01700
C1666       C  0.14934604  0.36022565  0.01271168     0.06900
C1667       C  0.14971446  0.38088163  0.02649344    -0.07700
C1668       C  0.15079396  0.37962695  0.05126156     0.04300
C1669       C  0.15122769  0.35731633  0.06264879    -0.14900
C1670       C  0.15033028  0.33671537  0.04877735    -0.08200
C1671       C  0.14888345  0.36199694  0.98645784     0.05300
C1672       C  0.12964714  0.35244078  0.97409357    -0.09400
C1673       C  0.12962373  0.35120553  0.94935363     0.00300
C1674       C  0.14931552  0.35968895  0.93635972     0.00100
C1675       C  0.16796113  0.37049211  0.94887231    -0.12900
C1676       C  0.16789137  0.37167598  0.97362932     0.00600
C1677       C  0.10910414  0.34103602  0.93804261     0.39900
C1678       C  0.18806585  0.38187560  0.98549165     0.36500
C1679       C  0.15047518  0.31620826  0.01074213     0.36200
C1680       C  0.15096331  0.40146714  0.06452252     0.37000
N1681       N  0.09262100  0.33285855  0.92908718    -0.43800
N1682       N  0.20420267  0.39010953  0.99500065    -0.44200
N1683       N  0.15112607  0.41893714  0.07519847    -0.41600
N1684       N  0.15122676  0.29879787  0.00000222    -0.43000
H1685       H  0.15101318  0.31949390  0.05721554     0.13100
H1686       H  0.14925660  0.39800377  0.01785566     0.09600
H1687       H  0.11479094  0.34540374  0.98390562     0.10700
H1688       H  0.18314164  0.37727044  0.93940464     0.16500
C1689       C  0.38333163  0.14611957  0.96914000    -0.01700
C1690       C  0.36306482  0.14503696  0.98365568     0.06900
C1691       C  0.34067737  0.14602364  0.97299098    -0.07700
C1692       C  0.33819965  0.14817546  0.94845006     0.04300
C1693       C  0.35848399  0.14995088  0.93394333    -0.14900
C1694       C  0.38090334  0.14883040  0.94458576    -0.08200
C1695       C  0.36459722  0.14473177  0.01001960     0.05300
C1696       C  0.37680444  0.16299223  0.02153039    -0.09400
C1697       C  0.37665349  0.16504157  0.04622013     0.00300
C1698       C  0.36341389  0.14883868  0.06013164     0.00100
C1699       C  0.35196938  0.12999284  0.04850544    -0.12900
C1700       C  0.35259716  0.12775097  0.02381535     0.00600
C1701       C  0.38982752  0.18443162  0.05637527     0.39900
C1702       C  0.34083911  0.10778993  0.01305913     0.36500
C1703       C  0.40679808  0.14402486  0.97895042     0.36200
C1704       C  0.31455856  0.14959469  0.93887362     0.37000
N1705       N  0.40055320  0.19994268  0.06433810    -0.43800
N1706       N  0.33142913  0.09178410  0.00444393    -0.44200
N1707       N  0.29559822  0.15065404  0.93125336    -0.41600
N1708       N  0.42561593  0.14230435  0.98679251    -0.43000
H1709       H  0.39658353  0.14982605  0.93366640     0.13100
H1710       H  0.32500641  0.14567962  0.98396583     0.09600
H1711       H  0.38597774  0.17619759  0.01110080     0.10700
H1712       H  0.34216977  0.11704527  0.05866601     0.16500
C1713       C  0.24821199  0.28597583  0.85577701    -0.01700
C1714       C  0.24574235  0.26443240  0.86809407     0.06900
C1715       C  0.22522803  0.26029803  0.88133795    -0.07700
C1716       C  0.20708602  0.27710635  0.88219149     0.04300
C1717       C  0.20958608  0.29881733  0.86995117    -0.14900
C1718       C  0.23032296  0.30298048  0.85696200    -0.08200
C1719       C  0.26435744  0.24598073  0.86744230     0.05300
C1720       C  0.28692853  0.25132993  0.87613180    -0.09400
C1721       C  0.30499132  0.23440079  0.87595890     0.00300
C1722       C  0.30042533  0.21128537  0.86726909     0.00100
C1723       C  0.27766952  0.20611605  0.85858442    -0.12900
C1724       C  0.25980619  0.22319004  0.85847527     0.00600
C1725       C  0.32780204  0.24147013  0.88498583     0.39900
C1726       C  0.23715302  0.21710669  0.84837701     0.36500
C1727       C  0.26849558  0.29068164  0.84105614     0.36200
C1728       C  0.18640755  0.27165025  0.89608435     0.37000
N1729       N  0.34605432  0.24732455  0.89213588    -0.43800
N1730       N  0.21901472  0.21225185  0.84025804    -0.44200
N1731       N  0.16984941  0.26712504  0.90717150    -0.41600
N1732       N  0.28470502  0.29446206  0.82920673    -0.43000
H1733       H  0.23231301  0.31931945  0.84711774     0.13100
H1734       H  0.22339207  0.24383194  0.89099701     0.09600
H1735       H  0.29041429  0.26884414  0.88312579     0.10700
H1736       H  0.27380543  0.18875282  0.85143799     0.16500
C1737       C  0.38117944  0.36013185  0.52619324    -0.01700
C1738       C  0.36171108  0.36533514  0.51152796     0.06900
C1739       C  0.33969035  0.36994556  0.52179351    -0.07700
C1740       C  0.33663067  0.36881712  0.54630200     0.04300
C1741       C  0.35592736  0.36267481  0.56109911    -0.14900
C1742       C  0.37814480  0.35865770  0.55073361    -0.08200
C1743       C  0.36325267  0.36394220  0.48539135     0.05300
C1744       C  0.36750584  0.34184974  0.47503883    -0.09400
C1745       C  0.36650433  0.33889655  0.45051026     0.00300
C1746       C  0.36124296  0.35850112  0.43569787     0.00100
C1747       C  0.35759369  0.38078878  0.44619860    -0.12900
C1748       C  0.35853292  0.38360468  0.47080105     0.00600
C1749       C  0.36960271  0.31520896  0.44140567     0.39900
C1750       C  0.35460090  0.40679821  0.48074296     0.36500
C1751       C  0.40445121  0.35657832  0.51641724     0.36200
C1752       C  0.31317373  0.37287433  0.55546700     0.37000
N1753       N  0.37204294  0.29620160  0.43418708    -0.43800
N1754       N  0.35147178  0.42535509  0.48880075    -0.44200
N1755       N  0.29437327  0.37619359  0.56275702    -0.41600
N1756       N  0.42310865  0.35391615  0.50852622    -0.43000
H1757       H  0.39318231  0.35432213  0.56180786     0.13100
H1758       H  0.32464526  0.37372724  0.51051448     0.09600
H1759       H  0.37077454  0.32663735  0.48627832     0.10700
H1760       H  0.35375893  0.39603765  0.43520891     0.16500
C1761       C  0.36387388  0.26170812  0.71756548    -0.01700
C1762       C  0.37729095  0.26547702  0.73827333     0.06900
C1763       C  0.38956049  0.28685842  0.74100494    -0.07700
C1764       C  0.38830235  0.30458121  0.72372847     0.04300
C1765       C  0.37476343  0.30089654  0.70296390    -0.14900
C1766       C  0.36287381  0.27924878  0.70009627    -0.08200
C1767       C  0.37852480  0.24741124  0.75736254     0.05300
C1768       C  0.38772867  0.22495951  0.75224371    -0.09400
C1769       C  0.38810146  0.20703686  0.76936078     0.00300
C1770       C  0.37931482  0.21153462  0.79241036     0.00100
C1771       C  0.37084492  0.23438826  0.79762473    -0.12900
C1772       C  0.37025720  0.25216244  0.78037193     0.00600
C1773       C  0.39758740  0.18431754  0.76253201     0.39900
C1774       C  0.36006700  0.27480999  0.78640050     0.36500
C1775       C  0.35024115  0.24036209  0.71424924     0.36200
C1776       C  0.40149832  0.32609940  0.72766500     0.37000
N1777       N  0.40507910  0.16610272  0.75693791    -0.43800
N1778       N  0.35189253  0.29297008  0.79114866    -0.44200
N1779       N  0.41201010  0.34336877  0.73086537    -0.41600
N1780       N  0.33930542  0.22325942  0.71164891    -0.43000
H1781       H  0.35224357  0.27622682  0.68442828     0.13100
H1782       H  0.40011323  0.28971435  0.75675456     0.09600
H1783       H  0.39441239  0.22135651  0.73465234     0.10700
H1784       H  0.36389274  0.23826150  0.81504397     0.16500
C1785       C  0.25768020  0.39118548  0.71663021    -0.01700
C1786       C  0.26107018  0.38048328  0.73887733     0.06900
C1787       C  0.28264841  0.36945647  0.74395594    -0.07700
C1788       C  0.30073218  0.36859961  0.72712847     0.04300
C1789       C  0.29745492  0.37925166  0.70465096    -0.14900
C1790       C  0.27578926  0.39052806  0.69976492    -0.08200
C1791       C  0.24201929  0.37952975  0.75681429     0.05300
C1792       C  0.22307933  0.36394291  0.75331449    -0.09400
C1793       C  0.20547213  0.36132935  0.77050686     0.00300
C1794       C  0.20653786  0.37477349  0.79160515     0.00100
C1795       C  0.22561515  0.39033507  0.79502207    -0.12900
C1796       C  0.24325855  0.39278459  0.77786331     0.00600
C1797       C  0.18739638  0.34371137  0.76659067     0.39900
C1798       C  0.26236217  0.40916439  0.78209729     0.36500
C1799       C  0.23583097  0.40306240  0.71083722     0.36200
C1800       C  0.32182809  0.35547268  0.73309277     0.37000
N1801       N  0.17308081  0.32943963  0.76341731    -0.43800
N1802       N  0.27766579  0.42231008  0.78547126    -0.44200
N1803       N  0.33865359  0.34485049  0.73790096    -0.41600
N1804       N  0.21832213  0.41260749  0.70623444    -0.43000
H1805       H  0.27293861  0.39882509  0.68271159     0.13100
H1806       H  0.28512050  0.36094603  0.76097457     0.09600
H1807       H  0.22239800  0.35336425  0.73734873     0.10700
H1808       H  0.22666284  0.40075851  0.81106515     0.16500
C1809       C  0.16598044  0.13889441  0.52379440    -0.01700
C1810       C  0.14703970  0.14907201  0.51117748     0.06900
C1811       C  0.12828447  0.15924271  0.52375166    -0.07700
C1812       C  0.12858789  0.16028915  0.54852875     0.04300
C1813       C  0.14819947  0.15116937  0.56129180    -0.14900
C1814       C  0.16643555  0.14002587  0.54852685    -0.08200
C1815       C  0.14707771  0.15030663  0.48489488     0.05300
C1816       C  0.14609232  0.12933379  0.47162313    -0.09400
C1817       C  0.14736918  0.12989751  0.44685387     0.00300
C1818       C  0.14977328  0.15177692  0.43497748     0.00100
C1819       C  0.14994004  0.17277348  0.44826860    -0.12900
C1820       C  0.14869551  0.17220172  0.47298680     0.00600
C1821       C  0.14534002  0.10790869  0.43400470     0.39900
C1822       C  0.15004089  0.19426920  0.48579922     0.36500
C1823       C  0.18566375  0.12804552  0.51172917     0.36200
C1824       C  0.10838875  0.17067279  0.56013894     0.37000
N1825       N  0.14354998  0.09035161  0.42362509    -0.43800
N1826       N  0.15109218  0.21193098  0.49609792    -0.44200
N1827       N  0.09211928  0.17898943  0.56930499    -0.41600
N1828       N  0.20141077  0.11928037  0.50208445    -0.43000
H1829       H  0.18157107  0.13276525  0.55779232     0.13100
H1830       H  0.11347052  0.16668744  0.51409721     0.09600
H1831       H  0.14440494  0.11250495  0.48066526     0.10700
H1832       H  0.15180890  0.18966441  0.43936484     0.16500
C1833       C  0.14187217  0.25618998  0.78304706    -0.01700
C1834       C  0.13032285  0.25962454  0.76118780     0.06900
C1835       C  0.11783920  0.28069258  0.75719056    -0.07700
C1836       C  0.11745239  0.29866587  0.77414156     0.04300
C1837       C  0.12936284  0.29546722  0.79593650    -0.14900
C1838       C  0.14113416  0.27395867  0.80022400    -0.08200
C1839       C  0.13099801  0.24158255  0.74216840     0.05300
C1840       C  0.12225081  0.21884574  0.74674643    -0.09400
C1841       C  0.12219822  0.20144111  0.72917952     0.00300
C1842       C  0.13061235  0.20687881  0.70622180     0.00100
C1843       C  0.13920681  0.22977193  0.70169456    -0.12900
C1844       C  0.13967701  0.24697622  0.71942978     0.00600
C1845       C  0.11316753  0.17835942  0.73536445     0.39900
C1846       C  0.14983129  0.26980534  0.71405485     0.36500
C1847       C  0.15541825  0.23506467  0.78794023     0.36200
C1848       C  0.10453425  0.32001738  0.76860209     0.37000
N1849       N  0.10619579  0.15984038  0.74061387    -0.43800
N1850       N  0.15795018  0.28810581  0.70978607    -0.44200
N1851       N  0.09424655  0.33712005  0.76399053    -0.41600
N1852       N  0.16627350  0.21815984  0.79193481    -0.43000
H1853       H  0.15053561  0.27130270  0.81673400     0.13100
H1854       H  0.10852798  0.28318065  0.74060058     0.09600
H1855       H  0.11533142  0.21471798  0.76413079     0.10700
H1856       H  0.14616920  0.23412614  0.68437877     0.16500
C1857       C  0.24903069  0.11990307  0.71486081    -0.01700
C1858       C  0.24524886  0.12783359  0.73817377     0.06900
C1859       C  0.22298302  0.13670591  0.74438968    -0.07700
C1860       C  0.20469909  0.13820626  0.72769891     0.04300
C1861       C  0.20854171  0.13069095  0.70410301    -0.14900
C1862       C  0.23082810  0.12145970  0.69808860    -0.08200
C1863       C  0.26467602  0.12848082  0.75591783     0.05300
C1864       C  0.28408315  0.14334745  0.75180889    -0.09400
C1865       C  0.30233775  0.14541387  0.76844309     0.00300
C1866       C  0.30133682  0.13242022  0.78982294     0.00100
C1867       C  0.28186418  0.11750564  0.79386053    -0.12900
C1868       C  0.26369512  0.11537958  0.77712285     0.00600
C1869       C  0.32117984  0.16191765  0.76353804     0.39900
C1870       C  0.24447872  0.09928874  0.78187750     0.36500
C1871       C  0.27137983  0.10980710  0.70786444     0.36200
C1872       C  0.18273112  0.14876766  0.73515365     0.37000
N1873       N  0.33618111  0.17522099  0.75951751    -0.43800
N1874       N  0.22912716  0.08633067  0.78569179    -0.44200
N1875       N  0.16527027  0.15733140  0.74142236    -0.41600
N1876       N  0.28930369  0.10166915  0.70235425    -0.43000
H1877       H  0.23406483  0.11538515  0.68021464     0.13100
H1878       H  0.22009408  0.14310379  0.76221890     0.09600
H1879       H  0.28472456  0.15373312  0.73570278     0.10700
H1880       H  0.28090784  0.10732442  0.81007654     0.10100
C1881       C  0.24602297  0.22696595  0.63534329    -0.01700
C1882       C  0.24063585  0.24907724  0.62509570     0.06900
C1883       C  0.21809907  0.25290478  0.61552656    -0.07700
C1884       C  0.20084641  0.23517612  0.61629306     0.04300
C1885       C  0.20614357  0.21298792  0.62674511    -0.14900
C1886       C  0.22888947  0.20916035  0.63599038    -0.08200
C1887       C  0.25834113  0.26839586  0.62432858     0.05300
C1888       C  0.27913548  0.26507228  0.61131129    -0.09400
C1889       C  0.29695194  0.28223421  0.61129604     0.00300
C1890       C  0.29413063  0.30319308  0.62466700     0.00100
C1891       C  0.27285192  0.30684944  0.63693485    -0.12900
C1892       C  0.25501874  0.28971027  0.63683299     0.00600
C1893       C  0.31753271  0.27815025  0.59681091     0.39900
C1894       C  0.23380039  0.29406691  0.65029463     0.36500
C1895       C  0.26878923  0.22239670  0.64598034     0.36200
C1896       C  0.17817476  0.24012916  0.60561005     0.37000
N1897       N  0.33394944  0.27489504  0.58508926    -0.43800
N1898       N  0.21674233  0.29757465  0.66098269    -0.44200
N1899       N  0.16002607  0.24414741  0.59704226    -0.41600
N1900       N  0.28704360  0.21878959  0.65449599    -0.43000
H1901       H  0.23318310  0.19236948  0.64422928     0.13100
H1902       H  0.21402510  0.26979804  0.60738586     0.09600
H1903       H  0.28146609  0.24893561  0.60122636     0.10700
H1904       H  0.27036822  0.32286798  0.64717023     0.16500
C1905       C  0.34034812  0.53243944  0.63278689    -0.01700
C1906       C  0.36122732  0.52017504  0.63875482     0.06900
C1907       C  0.38152886  0.53314298  0.64468655    -0.07700
C1908       C  0.38098131  0.55793598  0.64583960     0.04300
C1909       C  0.35965921  0.57023705  0.64112412    -0.14900
C1910       C  0.33974257  0.55715725  0.63395613    -0.08200
C1911       C  0.36175665  0.49387123  0.63999602     0.05300
C1912       C  0.35629492  0.48057541  0.61975015    -0.09400
C1913       C  0.35412408  0.45589054  0.62088154     0.00300
C1914       C  0.35821375  0.44396287  0.64253486     0.00100
C1915       C  0.36470125  0.45728691  0.66250622    -0.12900
C1916       C  0.36614515  0.48197823  0.66150446     0.00600
C1917       C  0.34751670  0.44341976  0.59958366     0.39900
C1918       C  0.37064729  0.49475220  0.68316455     0.36500
C1919       C  0.31893779  0.52002135  0.62651243     0.36200
C1920       C  0.40265061  0.57015913  0.65156177     0.37000
N1921       N  0.34204193  0.43350186  0.58253216    -0.43800
N1922       N  0.37412539  0.50494259  0.70056906    -0.44200
N1923       N  0.42003591  0.57995668  0.65605978    -0.41600
N1924       N  0.30185493  0.50999914  0.62140423    -0.43000
H1925       H  0.32327161  0.56615850  0.63009685     0.13100
H1926       H  0.39776998  0.52381066  0.64874973     0.09600
H1927       H  0.35307160  0.48961343  0.60314100     0.10700
H1928       H  0.36758651  0.44849613  0.67930966     0.16500
C1929       C  0.33644586  0.64337258  0.47334677    -0.01700
C1930       C  0.35840871  0.64730751  0.48446392     0.06900
C1931       C  0.37862139  0.65058464  0.47055098    -0.07700
C1932       C  0.37707012  0.65082717  0.44581656     0.04300
C1933       C  0.35488602  0.64796162  0.43464067    -0.14900
C1934       C  0.33485829  0.64365091  0.44864423    -0.08200
C1935       C  0.36036190  0.64882455  0.51058360     0.05300
C1936       C  0.35637868  0.62850528  0.52423279    -0.09400
C1937       C  0.35609005  0.62967821  0.54897507     0.00300
C1938       C  0.35962332  0.65166145  0.56048329     0.00100
C1939       C  0.36469578  0.67174822  0.54669580    -0.12900
C1940       C  0.36506624  0.67049490  0.52198272     0.00600
C1941       C  0.35253963  0.60797072  0.56200143     0.39900
C1942       C  0.36926526  0.69190608  0.50867955     0.36500
C1943       C  0.31513347  0.64007889  0.48696022     0.36200
C1944       C  0.39856560  0.65339897  0.43234600     0.37000
N1945       N  0.34978574  0.59054837  0.57241256    -0.43800
N1946       N  0.37265851  0.70906647  0.49803534    -0.44200
N1947       N  0.41578988  0.65529519  0.42151990    -0.41600
N1948       N  0.29809887  0.63744665  0.49792959    -0.43000
H1949       H  0.31774194  0.64141712  0.44032224     0.13100
H1950       H  0.39559106  0.65314673  0.47906956     0.09600
H1951       H  0.35318872  0.61174268  0.51547826     0.10700
H1952       H  0.36749386  0.68871864  0.55517239     0.16500
C1953       C  0.16902860  0.52747368  0.85227753    -0.01700
C1954       C  0.14690403  0.51609358  0.85209567     0.06900
C1955       C  0.12622237  0.52970688  0.85113762    -0.07700
C1956       C  0.12735670  0.55448193  0.85016519     0.04300
C1957       C  0.14955746  0.56599511  0.85066295    -0.14900
C1958       C  0.17019993  0.55222115  0.85199737    -0.08200
C1959       C  0.14523551  0.48993165  0.85190232     0.05300
C1960       C  0.14968823  0.47733175  0.87280978    -0.09400
C1961       C  0.15044749  0.45253297  0.87280015     0.00300
C1962       C  0.14694457  0.43997910  0.85143076     0.00100
C1963       C  0.14152497  0.45274566  0.83074093    -0.12900
C1964       C  0.14069766  0.47748666  0.83083234     0.00600
C1965       C  0.15443988  0.44049122  0.89499433     0.39900
C1966       C  0.13619727  0.48978717  0.80888935     0.36500
C1967       C  0.19071309  0.51402535  0.85131054     0.36200
C1968       C  0.10549345  0.56760490  0.84878622     0.37000
N1969       N  0.15754270  0.43079150  0.91276603    -0.43800
N1970       N  0.13261883  0.49966848  0.79131296    -0.44200
N1971       N  0.08797267  0.57810518  0.84755793    -0.41600
N1972       N  0.20799245  0.50312992  0.85021911    -0.43000
H1973       H  0.18732865  0.56077634  0.85176620     0.13100
H1974       H  0.10921268  0.52092505  0.85078766     0.09600
H1975       H  0.15290518  0.48693859  0.88908251     0.10700
H1976       H  0.13879624  0.44344825  0.81420200     0.16500
C1977       C  0.12494782  0.65230411  0.96942538    -0.01700
C1978       C  0.14452343  0.64667637  0.98377266     0.06900
C1979       C  0.16610604  0.64094011  0.97316850    -0.07700
C1980       C  0.16866111  0.64137254  0.94855050     0.04300
C1981       C  0.14911590  0.64728254  0.93398805    -0.14900
C1982       C  0.12733925  0.65251095  0.94477012    -0.08200
C1983       C  0.14343769  0.64795988  0.00992007     0.05300
C1984       C  0.14353165  0.62693396  0.02313761    -0.09400
C1985       C  0.14429499  0.62755477  0.04791916     0.00300
C1986       C  0.14529212  0.64950648  0.05972669     0.00100
C1987       C  0.14446979  0.67051720  0.04648106    -0.12900
C1988       C  0.14366571  0.66990942  0.02175824     0.00600
C1989       C  0.14297954  0.60557490  0.06085450     0.39900
C1990       C  0.14396288  0.69198906  0.00887478     0.36500
C1991       C  0.10235402  0.65820530  0.97964431     0.36200
C1992       C  0.19196182  0.63729841  0.93900785     0.37000
N1993       N  0.14155398  0.58795133  0.07118330    -0.43800
N1994       N  0.14420268  0.70967133  0.99853772    -0.44200
N1995       N  0.21069291  0.63416372  0.93146210    -0.41600
N1996       N  0.08425266  0.66299373  0.98782574    -0.43000
H1997       H  0.11220437  0.65710206  0.93393356     0.13100
H1998       H  0.18124074  0.63692997  0.98424480     0.09600
H1999       H  0.14307813  0.61005084  0.01405483     0.10700
H2000       H  0.14519081  0.68745229  0.05546290     0.16500
C2001       C  0.24939553  0.64163075  0.77913301    -0.01700
C2002       C  0.24431024  0.63489610  0.75567368     0.06900
C2003       C  0.22152360  0.62709867  0.74995116    -0.07700
C2004       C  0.20369676  0.62627925  0.76702072     0.04300
C2005       C  0.20862880  0.63318098  0.79064117    -0.14900
C2006       C  0.23168946  0.64063101  0.79632763    -0.08200
C2007       C  0.26259893  0.63528680  0.73691135     0.05300
C2008       C  0.28283253  0.62121215  0.73964037    -0.09400
C2009       C  0.30040918  0.62077859  0.72228784     0.00300
C2010       C  0.29781396  0.63459909  0.70156968     0.00100
C2011       C  0.27729513  0.64836016  0.69871406    -0.12900
C2012       C  0.25981178  0.64886893  0.71614920     0.00600
C2013       C  0.32045391  0.60538451  0.72596713     0.39900
C2014       C  0.23948534  0.66393731  0.71257254     0.36500
C2015       C  0.27244197  0.65031149  0.78586746     0.36200
C2016       C  0.18072943  0.61799715  0.75957266     0.37000
N2017       N  0.33646121  0.59298879  0.72898292    -0.43800
N2018       N  0.22318196  0.67596424  0.70964749    -0.44200
N2019       N  0.16235444  0.61140994  0.75345916    -0.41600
N2020       N  0.29089973  0.65725179  0.79129558    -0.43000
H2021       H  0.23587767  0.64621574  0.81417567     0.13100
H2022       H  0.21767946  0.62153518  0.73201081     0.09600
H2023       H  0.28478153  0.61035278  0.75532789     0.10700
H2024       H  0.27512251  0.65921425  0.68305068     0.16500
C2025       C  0.33787313  0.98127311  0.86060629    -0.01700
C2026       C  0.35995852  0.99258701  0.85883541     0.06900
C2027       C  0.38047147  0.97885060  0.85668858    -0.07700
C2028       C  0.37916106  0.95409836  0.85534164     0.04300
C2029       C  0.35689134  0.94271335  0.85595212    -0.14900
C2030       C  0.33650517  0.95657221  0.85925780    -0.08200
C2031       C  0.36164406  0.01872298  0.85702211     0.05300
C2032       C  0.35842368  0.03272645  0.87722559    -0.09400
C2033       C  0.35793547  0.05750482  0.87555250     0.00300
C2034       C  0.36043196  0.06859314  0.85322449     0.00100
C2035       C  0.36457937  0.05443512  0.83322457    -0.12900
C2036       C  0.36513115  0.02974479  0.83495903     0.00600
C2037       C  0.35535880  0.07107302  0.89704183     0.39900
C2038       C  0.36825230  0.01597901  0.81368410     0.36500
C2039       C  0.31628166  0.99475224  0.86257633     0.36200
C2040       C  0.40094053  0.94089192  0.85366643     0.37000
N2041       N  0.35341413  0.08200400  0.91423334    -0.43800
N2042       N  0.37071643  0.00485588  0.79669256    -0.44200
N2043       N  0.41841462  0.93032576  0.85241479    -0.41600
N2044       N  0.29900854  0.00560250  0.86411076    -0.43000
H2045       H  0.31928370  0.94818104  0.85980443     0.13100
H2046       H  0.39750806  0.98756143  0.85555219     0.09600
H2047       H  0.35601692  0.02425389  0.89425079     0.10700
H2048       H  0.36650818  0.06260763  0.81598964     0.16500
C2049       C  0.36189273  0.83868536  0.97219711    -0.01700
C2050       C  0.36148584  0.86065486  0.98399079     0.06900
C2051       C  0.36104157  0.88163665  0.97070231    -0.07700
C2052       C  0.35993362  0.88093739  0.94594810     0.04300
C2053       C  0.35885950  0.85889069  0.93419675    -0.14900
C2054       C  0.36056469  0.83797038  0.94753140    -0.08200
C2055       C  0.36028286  0.86188329  0.01015604     0.05300
C2056       C  0.37945461  0.85380632  0.02363371    -0.09400
C2057       C  0.37801610  0.85243227  0.04832695     0.00300
C2058       C  0.35691900  0.85923798  0.06000186     0.00100
C2059       C  0.33816218  0.86834689  0.04637485    -0.12900
C2060       C  0.33964888  0.86960329  0.02171081     0.00600
C2061       C  0.39855902  0.84408740  0.06103173     0.39900
C2062       C  0.31929885  0.87770095  0.00854201     0.36500
C2063       C  0.36265743  0.81659776  0.98505171     0.36200
C2064       C  0.36068571  0.90299415  0.93304333     0.37000
N2065       N  0.41507736  0.83738794  0.07110799    -0.43800
N2066       N  0.30300952  0.88414759  0.99794756    -0.44200
N2067       N  0.36152088  0.92063395  0.92266080    -0.41600
N2068       N  0.36336413  0.79889690  0.99533632    -0.43000
H2069       H  0.35997522  0.82094126  0.93873250     0.13100
H2070       H  0.36131573  0.89854936  0.97972626     0.09600
H2071       H  0.39543029  0.84812981  0.01475307     0.10700
H2072       H  0.32186804  0.87365899  0.05487940     0.16500
C2073       C  0.35620066  0.78617117  0.75341251    -0.01700
C2074       C  0.37312223  0.76787040  0.75443055     0.06900
C2075       C  0.38981267  0.76767296  0.77273551    -0.07700
C2076       C  0.38952355  0.78507234  0.79032517     0.04300
C2077       C  0.37249193  0.80337057  0.78951234    -0.14900
C2078       C  0.35614305  0.80387161  0.77077334    -0.08200
C2079       C  0.37350751  0.74842175  0.73688184     0.05300
C2080       C  0.39177857  0.74760371  0.72018486    -0.09400
C2081       C  0.39282658  0.72934377  0.70346236     0.00300
C2082       C  0.37537958  0.71148801  0.70341793     0.00100
C2083       C  0.35748014  0.71202340  0.72057203    -0.12900
C2084       C  0.35640507  0.73031338  0.73720382     0.00600
C2085       C  0.41245961  0.72876831  0.68720284     0.39900
C2086       C  0.33779496  0.73002023  0.75463017     0.36500
C2087       C  0.33867138  0.78697029  0.73483550     0.36200
C2088       C  0.40717780  0.78395525  0.80876057     0.37000
N2089       N  0.42825756  0.72817049  0.67425818    -0.43800
N2090       N  0.32290815  0.72983409  0.76862320    -0.44200
N2091       N  0.42126781  0.78309259  0.82358885    -0.41600
N2092       N  0.32458235  0.78746895  0.71998685    -0.43000
H2093       H  0.34290907  0.81772864  0.77005252     0.13100
H2094       H  0.40287515  0.75365237  0.77345787     0.09600
H2095       H  0.40522099  0.76125182  0.72025488     0.10700
H2096       H  0.34403806  0.69836734  0.72069589     0.16500
C2097       C  0.25909476  0.78554766  0.88556455    -0.01700
C2098       C  0.26025220  0.76480131  0.87170040     0.06900
C2099       C  0.27941897  0.76172413  0.85631274    -0.07700
C2100       C  0.29750222  0.77854690  0.85487448     0.04300
C2101       C  0.29664113  0.79919201  0.86903450    -0.14900
C2102       C  0.27715688  0.80249518  0.88410735    -0.08200
C2103       C  0.24154370  0.74623510  0.87243034     0.05300
C2104       C  0.21821382  0.75227227  0.86662892    -0.09400
C2105       C  0.20037738  0.73508148  0.86577255     0.00300
C2106       C  0.20586400  0.71093133  0.87022394     0.00100
C2107       C  0.22926853  0.70509278  0.87640095    -0.12900
C2108       C  0.24690865  0.72242727  0.87774216     0.00600
C2109       C  0.17681228  0.74299557  0.85992024     0.39900
C2110       C  0.27033232  0.71541734  0.88510762     0.36500
C2111       C  0.23980561  0.78964102  0.90173149     0.36200
C2112       C  0.31613982  0.77450988  0.83792707     0.37000
N2113       N  0.15793769  0.74947829  0.85540324    -0.43800
N2114       N  0.28910714  0.70988252  0.89106499    -0.44200
N2115       N  0.33102720  0.77124785  0.82431339    -0.41600
N2116       N  0.22427784  0.79293535  0.91459981    -0.43000
H2117       H  0.27614194  0.81823381  0.89499782     0.13100
H2118       H  0.28011615  0.74615605  0.84514641     0.09600
H2119       H  0.21397315  0.77050047  0.86239846     0.10700
H2120       H  0.23389290  0.68689785  0.88033453     0.16500
C2121       C  0.13696773  0.83965464  0.52293491    -0.01700
C2122       C  0.14420441  0.85980177  0.51014427     0.06900
C2123       C  0.15224763  0.87968028  0.52264614    -0.07700
C2124       C  0.15406431  0.87943995  0.54740612     0.04300
C2125       C  0.14739497  0.85898513  0.56034302    -0.14900
C2126       C  0.13840842  0.83946632  0.54769263    -0.08200
C2127       C  0.14491574  0.85992716  0.48374880     0.05300
C2128       C  0.12396051  0.85700865  0.47072680    -0.09400
C2129       C  0.12430299  0.85580136  0.44590148     0.00300
C2130       C  0.14596055  0.85796742  0.43356561     0.00100
C2131       C  0.16679088  0.86146933  0.44671196    -0.12900
C2132       C  0.16646893  0.86217675  0.47147289     0.00600
C2133       C  0.10214009  0.85256001  0.43364308     0.39900
C2134       C  0.18868445  0.86390994  0.48395162     0.36500
C2135       C  0.12928064  0.81842899  0.51098942     0.36200
C2136       C  0.16305408  0.90045382  0.55876551     0.37000
N2137       N  0.08436162  0.84988593  0.42386658    -0.43800
N2138       N  0.20644963  0.86516879  0.49402653    -0.44200
N2139       N  0.17046309  0.91737134  0.56757899    -0.41600
N2140       N  0.12320284  0.80141075  0.50137422    -0.43000
H2141       H  0.13329822  0.82354324  0.55706381     0.13100
H2142       H  0.15765024  0.89530230  0.51292362     0.09600
H2143       H  0.10732019  0.85539370  0.48002382     0.10700
H2144       H  0.18360050  0.86274786  0.43766365     0.16500
C2145       C  0.15212735  0.97741352  0.61699960    -0.01700
C2146       C  0.14497411  0.99221771  0.63571922     0.06900
C2147       C  0.13712871  0.98197630  0.65686513    -0.07700
C2148       C  0.13733370  0.95742638  0.66007025     0.04300
C2149       C  0.14562411  0.94248750  0.64175799    -0.14900
C2150       C  0.15261848  0.95283719  0.62024438    -0.08200
C2151       C  0.14651594  0.01842192  0.63441828     0.05300
C2152       C  0.12592657  0.03184497  0.63773899    -0.09400
C2153       C  0.12698132  0.05650958  0.63994605     0.00300
C2154       C  0.14904293  0.06818325  0.63873892     0.00100
C2155       C  0.16948906  0.05478277  0.63437103    -0.12900
C2156       C  0.16845547  0.03011967  0.63252761     0.00600
C2157       C  0.10516467  0.06931921  0.64339766     0.39900
C2158       C  0.19034983  0.01717526  0.63033007     0.36500
C2159       C  0.15891810  0.98701725  0.59433907     0.36200
C2160       C  0.13017741  0.94838091  0.68284204     0.37000
N2161       N  0.08769177  0.07958259  0.64618992    -0.43800
N2162       N  0.20791362  0.00684288  0.62856237    -0.44200
N2163       N  0.12439808  0.94125462  0.70112699    -0.41600
N2164       N  0.16437720  0.99470768  0.57618184    -0.43000
H2165       H  0.15869170  0.94166315  0.60589467     0.13100
H2166       H  0.13154138  0.99333905  0.67130553     0.09600
H2167       H  0.10904716  0.02292700  0.63920495     0.10700
H2168       H  0.18653819  0.06346627  0.63360408     0.16500
C2169       C  0.26127647  0.72673679  0.61413845    -0.01700
C2170       C  0.26391718  0.74816279  0.62656124     0.06900
C2171       C  0.28480846  0.75244949  0.63914156    -0.07700
C2172       C  0.30304052  0.73568456  0.63959919     0.04300
C2173       C  0.30058550  0.71413588  0.62698844    -0.14900
C2174       C  0.27951513  0.70997271  0.61441221    -0.08200
C2175       C  0.24492918  0.76622828  0.62697165     0.05300
C2176       C  0.22495346  0.76229267  0.64102273    -0.09400
C2177       C  0.20681995  0.77913146  0.64222892     0.00300
C2178       C  0.20830499  0.80018186  0.62870652     0.00100
C2179       C  0.22856660  0.80417624  0.61492613    -0.12900
C2180       C  0.24683499  0.78746554  0.61406655     0.00600
C2181       C  0.18770352  0.77497393  0.65860244     0.39900
C2182       C  0.26734108  0.79236179  0.59974198     0.36500
C2183       C  0.24009476  0.72172182  0.60079891     0.36200
C2184       C  0.32344177  0.74070783  0.65413671     0.37000
N2185       N  0.17256002  0.77168068  0.67192149    -0.43800
N2186       N  0.28385339  0.79624128  0.58835407    -0.44200
N2187       N  0.33969747  0.74480576  0.66587774    -0.41600
N2188       N  0.22311507  0.71772681  0.59010244    -0.43000
H2189       H  0.27727113  0.69359463  0.60470256     0.13100
H2190       H  0.28668722  0.76882361  0.64894795     0.09600
H2191       H  0.22377656  0.74621475  0.65142183     0.10700
H2192       H  0.23008350  0.82031945  0.60468201     0.16500
C2193       C  0.14363330  0.78521539  0.74242923    -0.01700
C2194       C  0.13043732  0.76430962  0.73908966     0.06900
C2195       C  0.11660715  0.76187046  0.71863960    -0.07700
C2196       C  0.11606988  0.77968657  0.70139668     0.04300
C2197       C  0.12976673  0.80041154  0.70437583    -0.14900
C2198       C  0.14317929  0.80303210  0.72517075    -0.08200
C2199       C  0.13041211  0.74499130  0.75695009     0.05300
C2200       C  0.12051939  0.74927001  0.77923874    -0.09400
C2201       C  0.12006658  0.73159878  0.79662419     0.00300
C2202       C  0.12979971  0.70897637  0.79186477     0.00100
C2203       C  0.13941083  0.70470686  0.76929991    -0.12900
C2204       C  0.13979000  0.72242875  0.75194998     0.00600
C2205       C  0.10891555  0.73715558  0.81888119     0.39900
C2206       C  0.15051841  0.71727226  0.72937678     0.36500
C2207       C  0.15831502  0.78844549  0.76309031     0.36200
C2208       C  0.10058479  0.77661962  0.68131618     0.37000
N2209       N  0.09995251  0.74163188  0.83670247    -0.43800
N2210       N  0.15911478  0.71315183  0.71128927    -0.44200
N2211       N  0.08806340  0.77423293  0.66529683    -0.41600
N2212       N  0.17005854  0.79098933  0.77966686    -0.43000
H2213       H  0.15383136  0.81876704  0.72768693     0.13100
H2214       H  0.10603944  0.74605767  0.71626525     0.09600
H2215       H  0.11297829  0.76649676  0.78299696     0.10700
H2216       H  0.14713482  0.68762365  0.76529195     0.16500
C2217       C  0.24780703  0.87195605  0.71625266    -0.01700
C2218       C  0.24246115  0.88026662  0.73908933     0.06900
C2219       C  0.21986542  0.88915480  0.74377801    -0.07700
C2220       C  0.20238855  0.88941989  0.72621980     0.04300
C2221       C  0.20730119  0.88011967  0.70345333    -0.14900
C2222       C  0.23028024  0.87181229  0.69873764    -0.08200
C2223       C  0.26016593  0.87982178  0.75841421     0.05300
C2224       C  0.27870128  0.89624749  0.75815538    -0.09400
C2225       C  0.29570922  0.89642563  0.77617678     0.00300
C2226       C  0.29435358  0.87979366  0.79482468     0.00100
C2227       C  0.27549363  0.86362925  0.79521642    -0.12900
C2228       C  0.25850562  0.86349544  0.77719116     0.00600
C2229       C  0.31381078  0.91441221  0.77556985     0.39900
C2230       C  0.23988360  0.84605061  0.77796083     0.36500
C2231       C  0.27101529  0.86303807  0.71054727     0.36200
C2232       C  0.17993344  0.90004899  0.73202985     0.37000
N2233       N  0.32826093  0.92888625  0.77519750    -0.43800
N2234       N  0.22497685  0.83205637  0.77854904    -0.44200
N2235       N  0.16203577  0.90872532  0.73676849    -0.41600
N2236       N  0.28963793  0.85597576  0.70594165    -0.43000
H2237       H  0.23451051  0.86471288  0.68146352     0.13100
H2238       H  0.21593730  0.89601711  0.76122799     0.09600
H2239       H  0.27975744  0.90904526  0.74391239     0.10700
H2240       H  0.27435428  0.85066182  0.80930336     0.16500
C2241       C  0.52817046  0.35825540  0.62122625    -0.01700
C2242       C  0.51477148  0.36359012  0.64149172     0.06900
C2243       C  0.52639300  0.36788216  0.66295238    -0.07700
C2244       C  0.55105273  0.36635309  0.66462911     0.04300
C2245       C  0.56464720  0.36068217  0.64434699    -0.14900
C2246       C  0.55284775  0.35688434  0.62275287    -0.08200
C2247       C  0.48856576  0.36267849  0.64119958     0.05300
C2248       C  0.47757099  0.34053747  0.63953359    -0.09400
C2249       C  0.45295981  0.33846606  0.64056691     0.00300
C2250       C  0.43876784  0.35896110  0.64310198     0.00100
C2251       C  0.44987802  0.38117878  0.64460711    -0.12900
C2252       C  0.47456513  0.38315622  0.64366136     0.00600
C2253       C  0.44297133  0.31494249  0.64054419     0.39900
C2254       C  0.48516798  0.40633635  0.64508020     0.36500
C2255       C  0.51688873  0.35403880  0.59871030     0.36200
C2256       C  0.56159860  0.36915776  0.68774152     0.37000
N2257       N  0.43503270  0.29607125  0.64065866    -0.43800
N2258       N  0.49367696  0.42492147  0.64616994    -0.44200
N2259       N  0.56997500  0.37129714  0.70630313    -0.41600
N2260       N  0.50776066  0.35069280  0.58069667    -0.43000
H2261       H  0.56289268  0.35260142  0.60703116     0.13100
H2262       H  0.51606310  0.37158731  0.67864503     0.09600
H2263       H  0.48834675  0.32473943  0.63804462     0.10700
H2264       H  0.43926460  0.39702296  0.64659584     0.16500
C2265       C  0.62520243  0.35622129  0.46612443    -0.01700
C2266       C  0.64437794  0.36156340  0.48117298     0.06900
C2267       C  0.66668657  0.36565947  0.47120578    -0.07700
C2268       C  0.67022755  0.36421747  0.44675925     0.04300
C2269       C  0.65109302  0.35855293  0.43161378    -0.14900
C2270       C  0.62867208  0.35478951  0.44164255    -0.08200
C2271       C  0.64217943  0.36110134  0.50740633     0.05300
C2272       C  0.63434199  0.34028677  0.51842433    -0.09400
C2273       C  0.63426356  0.33807838  0.54308162     0.00300
C2274       C  0.64300124  0.35676282  0.55733167     0.00100
C2275       C  0.64994609  0.37795793  0.54622244    -0.12900
C2276       C  0.64938551  0.38032364  0.52158503     0.00600
C2277       C  0.62584842  0.31607110  0.55295180     0.39900
C2278       C  0.65619945  0.40269950  0.51129641     0.36500
C2279       C  0.60181870  0.35203444  0.47538575     0.36200
C2280       C  0.69401412  0.36720226  0.43805685     0.37000
N2281       N  0.61889194  0.29847375  0.56076571    -0.43800
N2282       N  0.66160528  0.42066843  0.50310511    -0.44200
N2283       N  0.71310267  0.36951358  0.43114213    -0.41600
N2284       N  0.58314284  0.34851760  0.48288833    -0.43000
H2285       H  0.61378763  0.35052987  0.43034698     0.13100
H2286       H  0.68162405  0.36919816  0.48268529     0.09600
H2287       H  0.62887328  0.32538957  0.50767189     0.10700
H2288       H  0.65612774  0.39271560  0.55678192     0.16500
C2289       C  0.48106683  0.16983300  0.85331302    -0.01700
C2290       C  0.49273370  0.14780065  0.85211924     0.06900
C2291       C  0.47928594  0.12694033  0.85135192    -0.07700
C2292       C  0.45451655  0.12782503  0.85119400     0.04300
C2293       C  0.44284443  0.14993767  0.85188380    -0.14900
C2294       C  0.45638566  0.17071391  0.85335741    -0.08200
C2295       C  0.51893962  0.14639370  0.85143932     0.05300
C2296       C  0.53194799  0.15475981  0.87081443    -0.09400
C2297       C  0.55665466  0.15578619  0.87013881     0.00300
C2298       C  0.56892677  0.14817587  0.84966659     0.00100
C2299       C  0.55576367  0.13882951  0.83067247    -0.12900
C2300       C  0.53103938  0.13800174  0.83136701     0.00600
C2301       C  0.56873505  0.16477168  0.89077874     0.39900
C2302       C  0.51843315  0.12959848  0.81079381     0.36500
C2303       C  0.49402923  0.19184923  0.85342336     0.36200
C2304       C  0.44152895  0.10583575  0.85096899     0.37000
N2305       N  0.57834869  0.17203280  0.90733064    -0.43800
N2306       N  0.50830590  0.12289108  0.79431646    -0.44200
N2307       N  0.43107515  0.08823808  0.85089398    -0.41600
N2308       N  0.50441866  0.20948239  0.85347173    -0.43000
H2309       H  0.44766606  0.18780801  0.85363709     0.13100
H2310       H  0.48818817  0.10995516  0.85079900     0.09600
H2311       H  0.52267750  0.16094550  0.88638460     0.10700
H2312       H  0.56469983  0.13296896  0.81479552     0.16500
C2313       C  0.64036072  0.16448051  0.96870712    -0.01700
C2314       C  0.65004448  0.14496204  0.98083896     0.06900
C2315       C  0.66007497  0.12635167  0.96787119    -0.07700
C2316       C  0.66155356  0.12740368  0.94317930     0.04300
C2317       C  0.65246678  0.14734391  0.93094755    -0.14900
C2318       C  0.64146396  0.16542615  0.94404673    -0.08200
C2319       C  0.65132242  0.14442732  0.00704562     0.05300
C2320       C  0.63041125  0.14522149  0.02035794    -0.09400
C2321       C  0.63119612  0.14642927  0.04509846     0.00300
C2322       C  0.65321596  0.14630815  0.05684062     0.00100
C2323       C  0.67404907  0.14469689  0.04352712    -0.12900
C2324       C  0.67329730  0.14411599  0.01884695     0.00600
C2325       C  0.60924278  0.14741687  0.05802587     0.39900
C2326       C  0.69533601  0.14461828  0.00601129     0.36500
C2327       C  0.63038281  0.18440274  0.98119350     0.36200
C2328       C  0.67262489  0.10780497  0.93110504     0.37000
N2329       N  0.59168088  0.14821803  0.06843874    -0.43800
N2330       N  0.71295228  0.14513921  0.99567668    -0.44200
N2331       N  0.68160080  0.09211075  0.92151475    -0.41600
N2332       N  0.62240463  0.20037483  0.99119017    -0.43000
H2333       H  0.63448693  0.18091027  0.93512038     0.13100
H2334       H  0.66731415  0.11120535  0.97717148     0.09600
H2335       H  0.61349323  0.14527042  0.01136659     0.10700
H2336       H  0.69103563  0.14492645  0.05240880     0.16500
C2337       C  0.64400817  0.28660789  0.74093930    -0.01700
C2338       C  0.62988744  0.26623133  0.73832547     0.06900
C2339       C  0.61516536  0.26406954  0.71850653    -0.07700
C2340       C  0.61495390  0.28144155  0.70088791     0.04300
C2341       C  0.62975411  0.30151502  0.70299050    -0.14900
C2342       C  0.64379708  0.30405236  0.72336507    -0.08200
C2343       C  0.63051645  0.24673617  0.75583833     0.05300
C2344       C  0.62250956  0.25098333  0.77884347    -0.09400
C2345       C  0.62315057  0.23314932  0.79599419     0.00300
C2346       C  0.63202529  0.21038039  0.79016501     0.00100
C2347       C  0.63960960  0.20614264  0.76687383    -0.12900
C2348       C  0.63895701  0.22406692  0.74979703     0.00600
C2349       C  0.61414115  0.23880957  0.81920186     0.39900
C2350       C  0.64771920  0.21903508  0.72636048     0.36500
C2351       C  0.65952631  0.28955959  0.76102569     0.36200
C2352       C  0.59899232  0.27836591  0.68117535     0.37000
N2353       N  0.60694516  0.24340150  0.83778564    -0.43800
N2354       N  0.65469138  0.21511966  0.70754160    -0.44200
N2355       N  0.58616614  0.27587267  0.66541478    -0.41600
N2356       N  0.67193811  0.29191397  0.77713650    -0.43000
H2357       H  0.65521374  0.31932799  0.72524337     0.13100
H2358       H  0.60393655  0.24864002  0.71674835     0.09600
H2359       H  0.61570425  0.26833259  0.78338011     0.10700
H2360       H  0.64659357  0.18894652  0.76206720     0.16500
C2361       C  0.97561459  0.35683099  0.87470146    -0.01700
C2362       C  0.99062537  0.36417503  0.85623117     0.06900
C2363       C  0.98080708  0.37028392  0.83428572    -0.07700
C2364       C  0.95650230  0.36865696  0.83028772     0.04300
C2365       C  0.94143441  0.36056021  0.84853341    -0.14900
C2366       C  0.95127545  0.35501165  0.87072255    -0.08200
C2367       C  0.01672719  0.36312032  0.85836743     0.05300
C2368       C  0.02724921  0.34121147  0.86329663    -0.09400
C2369       C  0.05174023  0.33839299  0.86250418     0.00300
C2370       C  0.06629850  0.35779036  0.85625085     0.00100
C2371       C  0.05574415  0.37994196  0.85203296    -0.12900
C2372       C  0.03119440  0.38276464  0.85321744     0.00600
C2373       C  0.06111092  0.31499360  0.86683537     0.39900
C2374       C  0.02121891  0.40593309  0.84906958     0.36500
C2375       C  0.98480490  0.35099614  0.89782682     0.36200
C2376       C  0.94789060  0.37410276  0.80684293     0.37000
N2377       N  0.06855982  0.29623937  0.87037031    -0.43800
N2378       N  0.01316060  0.42447759  0.84578483    -0.44200
N2379       N  0.94098555  0.37847352  0.78806511    -0.41600
N2380       N  0.99222759  0.34629095  0.91632408    -0.43000
H2381       H  0.93996411  0.34905302  0.88497360     0.13100
H2382       H  0.99231983  0.37547053  0.81989220     0.09600
H2383       H  0.01619158  0.32597342  0.86689017     0.10700
H2384       H  0.06666376  0.39504356  0.84758099     0.16500
C2385       C  0.87016768  0.34038150  0.96682348    -0.01700
C2386       C  0.86332312  0.36094203  0.97916587     0.06900
C2387       C  0.85650722  0.38105774  0.96629115    -0.07700
C2388       C  0.85528623  0.38060426  0.94153666     0.04300
C2389       C  0.86109991  0.35963420  0.92912489    -0.14900
C2390       C  0.86907426  0.33991448  0.94211032    -0.08200
C2391       C  0.86203432  0.36138543  0.00544464     0.05300
C2392       C  0.88258664  0.35760255  0.01882308    -0.09400
C2393       C  0.88172468  0.35642118  0.04357883     0.00300
C2394       C  0.85987627  0.35916228  0.05546508     0.00100
C2395       C  0.83948568  0.36381352  0.04197098    -0.12900
C2396       C  0.84037412  0.36483086  0.01725088     0.00600
C2397       C  0.90362761  0.35278907  0.05620510     0.39900
C2398       C  0.81861610  0.36841408  0.00433992     0.36500
C2399       C  0.87735438  0.31913602  0.97909856     0.36200
C2400       C  0.84813389  0.40200411  0.92957001     0.37000
N2401       N  0.92122584  0.34990051  0.06625245    -0.43800
N2402       N  0.80123383  0.37131451  0.99392842    -0.44200
N2403       N  0.84231357  0.41931034  0.92029522    -0.41600
N2404       N  0.88319808  0.30209779  0.98886056    -0.43000
H2405       H  0.87364616  0.32366564  0.93301776     0.13100
H2406       H  0.85170182  0.39706553  0.97569262     0.09600
H2407       H  0.89933589  0.35535343  0.00984578     0.10700
H2408       H  0.82257450  0.36586813  0.05068429     0.16500
C2409       C  0.78878107  0.38490226  0.74536357    -0.01700
C2410       C  0.76534850  0.37760170  0.74960658     0.06900
C2411       C  0.75926977  0.36907760  0.77208224    -0.07700
C2412       C  0.77596236  0.36794021  0.79032665     0.04300
C2413       C  0.79954053  0.37518118  0.78614528    -0.14900
C2414       C  0.80559903  0.38357506  0.76350926    -0.08200
C2415       C  0.74698788  0.37801675  0.73076681     0.05300
C2416       C  0.75048410  0.36460792  0.71021062    -0.09400
C2417       C  0.73312575  0.36347184  0.69257731     0.00300
C2418       C  0.71154330  0.37588466  0.69543415     0.00100
C2419       C  0.70818105  0.38939515  0.71603225    -0.12900
C2420       C  0.72565085  0.39061558  0.73354493     0.00600
C2421       C  0.73767421  0.34851845  0.67236989     0.39900
C2422       C  0.72138063  0.40512593  0.75411433     0.36500
C2423       C  0.79590395  0.39423595  0.72269076     0.36200
C2424       C  0.76838576  0.35852102  0.81281705     0.37000
N2425       N  0.74142424  0.33651546  0.65622827    -0.43800
N2426       N  0.71800471  0.41667992  0.77065608    -0.44200
N2427       N  0.76219206  0.35101693  0.83081179    -0.41600
N2428       N  0.80162556  0.40167348  0.70451149    -0.43000
H2429       H  0.82350040  0.38934497  0.75998338     0.13100
H2430       H  0.74139980  0.36302631  0.77530513     0.09600
H2431       H  0.76666327  0.35455185  0.70818085     0.10700
H2432       H  0.69186528  0.39912555  0.71846758     0.16500
C2433       C  0.72359337  0.25002257  0.85665866    -0.01700
C2434       C  0.74530654  0.24616688  0.86834425     0.06900
C2435       C  0.74921508  0.22462047  0.88003872    -0.07700
C2436       C  0.73229792  0.20662357  0.87945427     0.04300
C2437       C  0.71067240  0.21031005  0.86744059    -0.14900
C2438       C  0.70642168  0.23224407  0.85652345    -0.08200
C2439       C  0.76438929  0.26413084  0.86802521     0.05300
C2440       C  0.75999237  0.28668422  0.87736605    -0.09400
C2441       C  0.77720790  0.30441663  0.87649183     0.00300
C2442       C  0.79948086  0.29959728  0.86617431     0.00100
C2443       C  0.80400982  0.27673992  0.85747948    -0.12900
C2444       C  0.78674880  0.25910422  0.85827993     0.00600
C2445       C  0.77157028  0.32709852  0.88681860     0.39900
C2446       C  0.79222221  0.23621119  0.84832394     0.36500
C2447       C  0.71894783  0.27160416  0.84374504     0.36200
C2448       C  0.73756286  0.18471103  0.89154712     0.37000
N2449       N  0.76695710  0.34524647  0.89509679    -0.43800
N2450       N  0.79665463  0.21783671  0.84045985    -0.44200
N2451       N  0.74182691  0.16711430  0.90113847    -0.41600
N2452       N  0.71526466  0.28889377  0.83338754    -0.43000
H2453       H  0.68998628  0.23520796  0.84710466     0.13100
H2454       H  0.76571066  0.22175247  0.88937392     0.09600
H2455       H  0.74299396  0.29043950  0.88531548     0.10700
H2456       H  0.82092674  0.27272297  0.84948724     0.16500
C2457       C  0.84303303  0.13725755  0.46649378    -0.01700
C2458       C  0.86333368  0.14459161  0.47894817     0.06900
C2459       C  0.88325875  0.15205121  0.46625138    -0.07700
C2460       C  0.88278033  0.15349269  0.44151775     0.04300
C2461       C  0.86217287  0.14678848  0.42901004    -0.14900
C2462       C  0.84272315  0.13812756  0.44180267    -0.08200
C2463       C  0.86335131  0.14626386  0.50515212     0.05300
C2464       C  0.85971854  0.12579028  0.51872507    -0.09400
C2465       C  0.85744652  0.12710732  0.54335976     0.00300
C2466       C  0.85879269  0.14933474  0.55482266     0.00100
C2467       C  0.86342420  0.16963712  0.54121220    -0.12900
C2468       C  0.86564850  0.16828907  0.51664010     0.00600
C2469       C  0.85426282  0.10533487  0.55637314     0.39900
C2470       C  0.86928166  0.18992817  0.50352028     0.36500
C2471       C  0.82173570  0.13024308  0.47864941     0.36200
C2472       C  0.90360140  0.16215994  0.42966671     0.37000
N2473       N  0.85177683  0.08789810  0.56682905    -0.43800
N2474       N  0.87227983  0.20721618  0.49296168    -0.44200
N2475       N  0.92037835  0.16934609  0.42048991    -0.41600
N2476       N  0.80464254  0.12470287  0.48837618    -0.43000
H2477       H  0.82669009  0.13311573  0.43256684     0.13100
H2478       H  0.89898489  0.15747584  0.47578003     0.09600
H2479       H  0.85835682  0.10878090  0.50998002     0.10700
H2480       H  0.86457681  0.18679887  0.54968586     0.16500
C2481       C  0.03161617  0.14967543  0.61618843    -0.01700
C2482       C  0.01622173  0.14795989  0.63571150     0.06900
C2483       C  0.02580468  0.14610717  0.65853727    -0.07700
C2484       C  0.05024204  0.14658296  0.66224263     0.04300
C2485       C  0.06569744  0.14893012  0.64279215    -0.14900
C2486       C  0.05610508  0.15035394  0.61988369    -0.08200
C2487       C  0.99006359  0.14815706  0.63316870     0.05300
C2488       C  0.97723828  0.12871701  0.64168136    -0.09400
C2489       C  0.95252359  0.12911382  0.64246562     0.00300
C2490       C  0.94006100  0.14937841  0.63455605     0.00100
C2491       C  0.95295489  0.16842768  0.62506984    -0.12900
C2492       C  0.97769647  0.16809000  0.62455410     0.00600
C2493       C  0.94056981  0.10845647  0.65156541     0.39900
C2494       C  0.98992060  0.18899944  0.61645782     0.36500
C2495       C  0.02275891  0.15046138  0.59224683     0.36200
C2496       C  0.05880339  0.14605503  0.68629761     0.37000
N2497       N  0.93105448  0.09190080  0.65892736    -0.43800
N2498       N  0.99965199  0.20576086  0.60988834    -0.44200
N2499       N  0.06554041  0.14568535  0.70562128    -0.41600
N2500       N  0.01568372  0.15118501  0.57304766    -0.43000
H2501       H  0.06780331  0.15197384  0.60480742     0.13100
H2502       H  0.01405451  0.14483869  0.67362517     0.09600
H2503       H  0.98665618  0.11334094  0.64825480     0.10700
H2504       H  0.94376375  0.18417579  0.61909667     0.16500
C2505       C  0.75860562  0.22241504  0.60623806    -0.01700
C2506       C  0.76036661  0.24390918  0.61868126     0.06900
C2507       C  0.78092339  0.24882024  0.63160117    -0.07700
C2508       C  0.79958548  0.23254070  0.63254913     0.04300
C2509       C  0.79780491  0.21067179  0.62036881    -0.14900
C2510       C  0.77714505  0.20598080  0.60725780    -0.08200
C2511       C  0.74084252  0.26144781  0.61877459     0.05300
C2512       C  0.72048031  0.25671804  0.63203734    -0.09400
C2513       C  0.70220129  0.27341077  0.63365303     0.00300
C2514       C  0.70404775  0.29528055  0.62149913     0.00100
C2515       C  0.72444655  0.29973070  0.60800548    -0.12900
C2516       C  0.74274408  0.28311650  0.60664300     0.00600
C2517       C  0.68251898  0.26807351  0.64898223     0.39900
C2518       C  0.76331511  0.28862493  0.59263235     0.36500
C2519       C  0.73815682  0.21716286  0.59187951     0.36200
C2520       C  0.81985613  0.23854284  0.64689720     0.37000
N2521       N  0.66683870  0.26379625  0.66137389    -0.43800
N2522       N  0.77982673  0.29300465  0.58142571    -0.44200
N2523       N  0.83607220  0.24343087  0.65839084    -0.41600
N2524       N  0.72179472  0.21310619  0.58027776    -0.43000
H2525       H  0.77550421  0.18949993  0.59760949     0.13100
H2526       H  0.78224131  0.26535579  0.64122264     0.09600
H2527       H  0.71916442  0.24016557  0.64163897     0.10700
H2528       H  0.72620539  0.31631906  0.59854754     0.16500
C2529       C  0.75746465  0.13755301  0.70903929    -0.01700
C2530       C  0.76299596  0.12924003  0.73189919     0.06900
C2531       C  0.78582237  0.12080612  0.73654889    -0.07700
C2532       C  0.80338309  0.12139560  0.71918512     0.04300
C2533       C  0.79805492  0.13016340  0.69625152    -0.14900
C2534       C  0.77483194  0.13777776  0.69149058    -0.08200
C2535       C  0.74541652  0.12977534  0.75136403     0.05300
C2536       C  0.72404557  0.11751160  0.74868573    -0.09400
C2537       C  0.70666053  0.11835575  0.76622705     0.00300
C2538       C  0.71076370  0.13129654  0.78725605     0.00100
C2539       C  0.73245259  0.14304476  0.79014520    -0.12900
C2540       C  0.74960852  0.14258361  0.77237675     0.00600
C2541       C  0.68502975  0.10540229  0.76226559     0.39900
C2542       C  0.77097350  0.15615783  0.77574197     0.36500
C2543       C  0.73439054  0.14694121  0.70340275     0.36200
C2544       C  0.82662403  0.11309941  0.72577786     0.37000
N2545       N  0.66767972  0.09507746  0.75900001    -0.43800
N2546       N  0.78811278  0.16700375  0.77837353    -0.44200
N2547       N  0.84525930  0.10659210  0.73118111    -0.41600
N2548       N  0.71589560  0.15444920  0.69890560    -0.43000
H2549       H  0.77027543  0.14463271  0.67417131     0.13100
H2550       H  0.79003185  0.11407244  0.75401121     0.09600
H2551       H  0.72089443  0.10735363  0.73273965     0.10700
H2552       H  0.73576448  0.15321292  0.80605485     0.16500
C2553       C  0.86745858  0.22130839  0.73787011    -0.01700
C2554       C  0.88069512  0.24213189  0.73418345     0.06900
C2555       C  0.89320812  0.24485344  0.71298364    -0.07700
C2556       C  0.89215207  0.22757107  0.69525040     0.04300
C2557       C  0.87823472  0.20699881  0.69853803    -0.14900
C2558       C  0.86636457  0.20397608  0.72016203    -0.08200
C2559       C  0.88106976  0.26156859  0.75193251     0.05300
C2560       C  0.89125450  0.25756745  0.77422068    -0.09400
C2561       C  0.89086804  0.27512445  0.79175165     0.00300
C2562       C  0.87977035  0.29713860  0.78720011     0.00100
C2563       C  0.87036759  0.30133219  0.76453686    -0.12900
C2564       C  0.87101229  0.28387594  0.74698121     0.00600
C2565       C  0.90280313  0.27034266  0.81383426     0.39900
C2566       C  0.86063063  0.28905816  0.72421044     0.36500
C2567       C  0.85413663  0.21776521  0.75933544     0.36200
C2568       C  0.90605874  0.23119844  0.67417005     0.37000
N2569       N  0.91255105  0.26653130  0.83143806    -0.43800
N2570       N  0.85242680  0.29323733  0.70591899    -0.44200
N2571       N  0.91724783  0.23405887  0.65730288    -0.41600
N2572       N  0.84351286  0.21499894  0.77657942    -0.43000
H2573       H  0.85564450  0.18835320  0.72301003     0.13100
H2574       H  0.90373630  0.26062838  0.71025476     0.09600
H2575       H  0.89955018  0.24066449  0.77789312     0.10700
H2576       H  0.86196026  0.31812995  0.76063695     0.16500
C2577       C  0.53060282  0.62917226  0.64838869    -0.01700
C2578       C  0.51717971  0.64757615  0.63821960     0.06900
C2579       C  0.52882531  0.66687114  0.62799064    -0.07700
C2580       C  0.55348515  0.66848509  0.62837422     0.04300
C2581       C  0.56712285  0.65041520  0.63936154    -0.14900
C2582       C  0.55529854  0.63071246  0.64892174    -0.08200
C2583       C  0.49100832  0.64811014  0.63982115     0.05300
C2584       C  0.48063292  0.64997805  0.66223097    -0.09400
C2585       C  0.45614911  0.65215904  0.66471846     0.00300
C2586       C  0.44146532  0.65215491  0.64444367     0.00100
C2587       C  0.45190474  0.65038037  0.62198708    -0.12900
C2588       C  0.47646583  0.64844082  0.61954309     0.00600
C2589       C  0.44682201  0.65605293  0.68816044     0.39900
C2590       C  0.48634751  0.64676773  0.59609117     0.36500
C2591       C  0.51937431  0.60852739  0.65835791     0.36200
C2592       C  0.56392671  0.68952496  0.61830047     0.37000
N2593       N  0.43943834  0.65938068  0.70693698    -0.43800
N2594       N  0.49428129  0.64551939  0.57729005    -0.44200
N2595       N  0.57218634  0.70640080  0.61017386    -0.41600
N2596       N  0.51033427  0.59197530  0.66629655    -0.43000
H2597       H  0.56532170  0.61654992  0.65710970     0.13100
H2598       H  0.51852059  0.68115154  0.62035199     0.09600
H2599       H  0.49181041  0.65045672  0.67781164     0.10700
H2600       H  0.44085627  0.65052600  0.60631530     0.16500
C2601       C  0.64310815  0.53153268  0.61418237    -0.01700
C2602       C  0.64349210  0.51643790  0.63408381     0.06900
C2603       C  0.64592342  0.52630333  0.65672034    -0.07700
C2604       C  0.64780487  0.55074888  0.65982410     0.04300
C2605       C  0.64734305  0.56588276  0.63997396    -0.14900
C2606       C  0.64513350  0.55608003  0.61726347    -0.08200
C2607       C  0.64289041  0.49023185  0.63204670     0.05300
C2608       C  0.66133328  0.47862536  0.62030779    -0.09400
C2609       C  0.66372807  0.45396567  0.62145977     0.00300
C2610       C  0.64748119  0.44036820  0.63494443     0.00100
C2611       C  0.62818306  0.45208811  0.64540738    -0.12900
C2612       C  0.62578944  0.47668993  0.64403614     0.00600
C2613       C  0.68359119  0.44353421  0.60930761     0.39900
C2614       C  0.60583566  0.48773965  0.65546720     0.36500
C2615       C  0.64042699  0.52231443  0.59053127     0.36200
C2616       C  0.65176451  0.55968711  0.68343030     0.37000
N2617       N  0.69950418  0.43525120  0.59950280    -0.43800
N2618       N  0.58989194  0.49664805  0.66464570    -0.44200
N2619       N  0.65509790  0.56678673  0.70233388    -0.41600
N2620       N  0.63830005  0.51500548  0.57153543    -0.43000
H2621       H  0.64494721  0.56762404  0.60194829     0.13100
H2622       H  0.64692877  0.51476546  0.67201425     0.09600
H2623       H  0.67453323  0.48897956  0.61106695     0.10700
H2624       H  0.61513610  0.44213049  0.65526185     0.16500
C2625       C  0.62420404  0.65367334  0.52212263    -0.01700
C2626       C  0.64306265  0.64653162  0.50742507     0.06900
C2627       C  0.66461381  0.64010047  0.51792421    -0.07700
C2628       C  0.66767483  0.64071309  0.54247952     0.04300
C2629       C  0.64900901  0.64845139  0.55722809    -0.14900
C2630       C  0.62737184  0.65479517  0.54671725    -0.08200
C2631       C  0.64140735  0.64704682  0.48107050     0.05300
C2632       C  0.63525233  0.66829190  0.46976846    -0.09400
C2633       C  0.63564714  0.67032497  0.44507692     0.00300
C2634       C  0.64309056  0.65090847  0.43100457     0.00100
C2635       C  0.64856106  0.62943170  0.44239359    -0.12900
C2636       C  0.64755357  0.62730617  0.46706647     0.00600
C2637       C  0.62899903  0.69288041  0.43502008     0.39900
C2638       C  0.65273680  0.60458395  0.47757138     0.36500
C2639       C  0.60132814  0.65957831  0.51244143     0.36200
C2640       C  0.69058240  0.63430091  0.55179533     0.37000
N2641       N  0.62347943  0.71095438  0.42709676    -0.43800
N2642       N  0.65688456  0.58636912  0.48598173    -0.44200
N2643       N  0.70892866  0.62907726  0.55921026    -0.41600
N2644       N  0.58300376  0.66430958  0.50465621    -0.43000
H2645       H  0.61282817  0.66053869  0.55775032     0.13100
H2646       H  0.67935977  0.63506632  0.50681010     0.09600
H2647       H  0.63070447  0.68362446  0.48033544     0.10700
H2648       H  0.65377139  0.61418452  0.43201547     0.16500
C2649       C  0.83875893  0.52917296  0.85714833    -0.01700
C2650       C  0.85932977  0.51718418  0.84986076     0.06900
C2651       C  0.87885847  0.53028399  0.84215415    -0.07700
C2652       C  0.87814036  0.55504766  0.84141383     0.04300
C2653       C  0.85754898  0.56721662  0.84881841    -0.14900
C2654       C  0.83814889  0.55393139  0.85691290    -0.08200
C2655       C  0.86026935  0.49099535  0.84847599     0.05300
C2656       C  0.86178429  0.48039467  0.82612363    -0.09400
C2657       C  0.86136390  0.45575671  0.82368752     0.00300
C2658       C  0.85971491  0.44123629  0.84399119     0.00100
C2659       C  0.85880486  0.45191291  0.86639179    -0.12900
C2660       C  0.85908748  0.47657188  0.86879181     0.00600
C2661       C  0.86101965  0.44598935  0.80008933     0.39900
C2662       C  0.85811519  0.48665036  0.89222798     0.36500
C2663       C  0.81760163  0.51645300  0.86359619     0.36200
C2664       C  0.89877877  0.56728316  0.83278973     0.37000
N2665       N  0.86060285  0.43815078  0.78119158    -0.43800
N2666       N  0.85721647  0.49470275  0.91101497    -0.44200
N2667       N  0.91533601  0.57688957  0.82563496    -0.41600
N2668       N  0.80063049  0.50624288  0.86865510    -0.43000
H2669       H  0.82202583  0.56284990  0.86213776     0.13100
H2670       H  0.89460274  0.52105834  0.83632011     0.09600
H2671       H  0.86253642  0.49146109  0.81047461     0.10700
H2672       H  0.85776612  0.44096208  0.88202203     0.16500
C2673       C  0.97495139  0.62479184  0.85283590    -0.01700
C2674       C  0.98947851  0.64441669  0.85785845     0.06900
C2675       C  0.97897003  0.66649317  0.86201288    -0.07700
C2676       C  0.95443337  0.66945305  0.86049453     0.04300
C2677       C  0.93976071  0.64989983  0.85492445    -0.14900
C2678       C  0.95036079  0.62763369  0.85149379    -0.08200
C2679       C  0.01569033  0.64301767  0.85651999     0.05300
C2680       C  0.02616597  0.63898354  0.83445109    -0.09400
C2681       C  0.05069821  0.64027087  0.83156631     0.00300
C2682       C  0.06539925  0.64559481  0.85117606     0.00100
C2683       C  0.05484194  0.64894655  0.87343952    -0.12900
C2684       C  0.03024973  0.64770640  0.87621969     0.00600
C2685       C  0.05996610  0.63766894  0.80792809     0.39900
C2686       C  0.02031480  0.65133523  0.89942326     0.36500
C2687       C  0.98493580  0.60162458  0.84883398     0.36200
C2688       C  0.94514485  0.69312824  0.86304538     0.37000
N2689       N  0.06733239  0.63567915  0.78895574    -0.43800
N2690       N  0.01234991  0.65420545  0.91803249    -0.44200
N2691       N  0.93778769  0.71214411  0.86497353    -0.41600
N2692       N  0.99297891  0.58307291  0.84561492    -0.43000
H2693       H  0.93944423  0.61245543  0.84745323     0.13100
H2694       H  0.99010693  0.68171752  0.86546586     0.09600
H2695       H  0.01500480  0.63573219  0.81918264     0.10700
H2696       H  0.06580349  0.65283700  0.88869410     0.16500
C2697       C  0.87758487  0.64935189  0.96952041    -0.01700
C2698       C  0.85775619  0.64319027  0.98325737     0.06900
C2699       C  0.83632855  0.63809507  0.97191631    -0.07700
C2700       C  0.83417191  0.63974494  0.94730788     0.04300
C2701       C  0.85388515  0.64660689  0.93345300    -0.14900
C2702       C  0.87553244  0.65098673  0.94489404    -0.08200
C2703       C  0.85821874  0.64444614  0.00948883     0.05300
C2704       C  0.86312564  0.66628709  0.02011537    -0.09400
C2705       C  0.86213043  0.66906565  0.04463927     0.00300
C2706       C  0.85567689  0.64967144  0.05919369     0.00100
C2707       C  0.85107780  0.62766934  0.04846353    -0.12900
C2708       C  0.85242232  0.62491230  0.02387251     0.00600
C2709       C  0.86698386  0.69234383  0.05401916     0.39900
C2710       C  0.84811578  0.60182666  0.01382735     0.36500
C2711       C  0.90015741  0.65432222  0.98036287     0.36200
C2712       C  0.81108262  0.63573969  0.93715514     0.37000
N2713       N  0.87098127  0.71100090  0.06144996    -0.43800
N2714       N  0.84472882  0.58330575  0.00578598    -0.44200
N2715       N  0.79252387  0.63256389  0.92914882    -0.41600
N2716       N  0.91818166  0.65838444  0.98914579    -0.43000
H2717       H  0.89086806  0.65602007  0.93461612     0.13100
H2718       H  0.82093849  0.63377436  0.98244414     0.09600
H2719       H  0.86725849  0.68142898  0.00909571     0.10700
H2720       H  0.84642525  0.61254500  0.05928227     0.16500
C2721       C  0.78426367  0.64690904  0.75030171    -0.01700
C2722       C  0.76496265  0.63129069  0.75226692     0.06900
C2723       C  0.76354993  0.61605353  0.77175877    -0.07700
C2724       C  0.78088723  0.61639818  0.78943539     0.04300
C2725       C  0.80016074  0.63223864  0.78770531    -0.14900
C2726       C  0.80176454  0.64716122  0.76787397    -0.08200
C2727       C  0.74585574  0.63076071  0.73432457     0.05300
C2728       C  0.75010893  0.62003437  0.71241047    -0.09400
C2729       C  0.73247878  0.61923876  0.69499428     0.00300
C2730       C  0.71010287  0.62958188  0.69936820     0.00100
C2731       C  0.70586095  0.63993066  0.72158149    -0.12900
C2732       C  0.72347426  0.64058205  0.73897060     0.00600
C2733       C  0.73768764  0.60709875  0.67315025     0.39900
C2734       C  0.71840884  0.65196908  0.76124606     0.36500
C2735       C  0.78593954  0.66341628  0.73087487     0.36200
C2736       C  0.77876734  0.59987084  0.80881710     0.37000
N2737       N  0.74187002  0.59732179  0.65567394    -0.43800
N2738       N  0.71436480  0.66110540  0.77909469    -0.44200
N2739       N  0.77711876  0.58662654  0.82434650    -0.41600
N2740       N  0.78715874  0.67670446  0.71534390    -0.43000
H2741       H  0.81631657  0.65953885  0.76645936     0.13100
H2742       H  0.74880383  0.60390745  0.77316210     0.09600
H2743       H  0.76723336  0.61215528  0.70898394     0.10700
H2744       H  0.68890814  0.64808296  0.72521751     0.16500
C2745       C  0.52677266  0.84083313  0.85856310    -0.01700
C2746       C  0.51444791  0.86212991  0.85462024     0.06900
C2747       C  0.52726064  0.88282859  0.84972652    -0.07700
C2748       C  0.55200413  0.88235754  0.84782091     0.04300
C2749       C  0.56434287  0.86071797  0.85052881    -0.14900
C2750       C  0.55140307  0.84028350  0.85650852    -0.08200
C2751       C  0.48819138  0.86261348  0.85354567     0.05300
C2752       C  0.47491729  0.86005064  0.87433135    -0.09400
C2753       C  0.45012787  0.85902828  0.87350517     0.00300
C2754       C  0.43823729  0.86033173  0.85148257     0.00100
C2755       C  0.45165250  0.86350995  0.83082169    -0.12900
C2756       C  0.47634596  0.86457153  0.83169572     0.00600
C2757       C  0.43734601  0.85738768  0.89552898     0.39900
C2758       C  0.48927677  0.86670995  0.80981209     0.36500
C2759       C  0.51445238  0.81904874  0.86366440     0.36200
C2760       C  0.56419458  0.90439762  0.84365939     0.37000
N2761       N  0.42702054  0.85621659  0.91313708    -0.43800
N2762       N  0.49974606  0.86838202  0.79233757    -0.44200
N2763       N  0.57389328  0.92214349  0.84049993    -0.41600
N2764       N  0.50464320  0.80156229  0.86776777    -0.43000
H2765       H  0.56045340  0.82352372  0.85881148     0.13100
H2766       H  0.51783283  0.89931918  0.84701518     0.09600
H2767       H  0.48396160  0.85875287  0.89118517     0.10700
H2768       H  0.44288198  0.86443757  0.81379613     0.16500
C2769       C  0.64849846  0.98041919  0.83084647    -0.01700
C2770       C  0.64858953  0.99159994  0.85308353     0.06900
C2771       C  0.64825210  0.97783061  0.87372470    -0.07700
C2772       C  0.64809979  0.95303224  0.87238500     0.04300
C2773       C  0.64818300  0.94180571  0.85003528    -0.14900
C2774       C  0.64806491  0.95575691  0.82948162    -0.08200
C2775       C  0.64951081  0.01770042  0.85474643     0.05300
C2776       C  0.62929580  0.03079799  0.84890993    -0.09400
C2777       C  0.63025144  0.05548114  0.84695920     0.00300
C2778       C  0.65190514  0.06741734  0.85068448     0.00100
C2779       C  0.67183518  0.05421727  0.85770094    -0.12900
C2780       C  0.67079818  0.02956473  0.85968032     0.00600
C2781       C  0.60869562  0.06801023  0.84142111     0.39900
C2782       C  0.69206166  0.01671329  0.86562249     0.36500
C2783       C  0.64987968  0.99393654  0.80920147     0.36200
C2784       C  0.64727293  0.93958821  0.89409903     0.37000
N2785       N  0.59139330  0.07804016  0.83706548    -0.43800
N2786       N  0.70910614  0.00641930  0.87036187    -0.44200
N2787       N  0.64652954  0.92882524  0.91150365    -0.41600
N2788       N  0.65112604  0.00483423  0.79191713    -0.43000
H2789       H  0.64853699  0.94736139  0.81225799     0.13100
H2790       H  0.64822306  0.98647282  0.89082373     0.09600
H2791       H  0.61287319  0.02161502  0.84531506     0.10700
H2792       H  0.68855224  0.06304228  0.86077016     0.16500
C2793       C  0.62394760  0.85675695  0.96593156    -0.01700
C2794       C  0.64409523  0.85996839  0.98017794     0.06900
C2795       C  0.66621035  0.86284243  0.96956300    -0.07700
C2796       C  0.66864935  0.86199611  0.94498989     0.04300
C2797       C  0.64854957  0.85810370  0.93051219    -0.14900
C2798       C  0.62629064  0.85573108  0.94129528    -0.08200
C2799       C  0.64292693  0.85876651  0.00626373     0.05300
C2800       C  0.64025088  0.83657516  0.01696092    -0.09400
C2801       C  0.64149358  0.83413918  0.04154288     0.00300
C2802       C  0.64520449  0.85433222  0.05589000     0.00100
C2803       C  0.64750855  0.87661614  0.04506337    -0.12900
C2804       C  0.64640998  0.87894016  0.02043569     0.00600
C2805       C  0.64061964  0.81052121  0.05132157     0.39900
C2806       C  0.64898699  0.90212118  0.01001534     0.36500
C2807       C  0.60074540  0.85475665  0.97628044     0.36200
C2808       C  0.69219748  0.86399423  0.93538988     0.37000
N2809       N  0.64006628  0.79158579  0.05912157    -0.43800
N2810       N  0.65101387  0.92067570  0.00158837    -0.44200
N2811       N  0.71107246  0.86562088  0.92773444    -0.41600
N2812       N  0.58217360  0.85332519  0.98467082    -0.43000
H2813       H  0.61069366  0.85305124  0.93048279     0.13100
H2814       H  0.68172037  0.86513999  0.98060402     0.09600
H2815       H  0.63804120  0.82100484  0.00598181     0.10700
H2816       H  0.65036456  0.89221209  0.05584355     0.16500
C2817       C  0.62193923  0.75760960  0.77901308    -0.01700
C2818       C  0.62734045  0.76184773  0.75503474     0.06900
C2819       C  0.63172139  0.78515212  0.74765703    -0.07700
C2820       C  0.63174745  0.80398549  0.76376870     0.04300
C2821       C  0.62754492  0.79962998  0.78809726    -0.14900
C2822       C  0.62230930  0.77632369  0.79523318    -0.08200
C2823       C  0.62841600  0.74252624  0.73713159     0.05300
C2824       C  0.61406261  0.74417382  0.71691099    -0.09400
C2825       C  0.61548995  0.72733366  0.69879363     0.00300
C2826       C  0.63133306  0.70812194  0.70085625     0.00100
C2827       C  0.64544308  0.70625466  0.72123998    -0.12900
C2828       C  0.64444402  0.72342212  0.73908953     0.00600
C2829       C  0.60009061  0.72990098  0.67857396     0.39900
C2830       C  0.66088714  0.72162504  0.75857341     0.36500
C2831       C  0.61558571  0.73434098  0.78744089     0.36200
C2832       C  0.63675166  0.82732727  0.75465746     0.37000
N2833       N  0.58775456  0.73200213  0.66236803    -0.43800
N2834       N  0.67406508  0.72011287  0.77417488    -0.44200
N2835       N  0.64062176  0.84596905  0.74711508    -0.41600
N2836       N  0.61059285  0.71573052  0.79436867    -0.43000
H2837       H  0.61847300  0.77260453  0.81363677     0.13100
H2838       H  0.63556339  0.78859346  0.72919550     0.09600
H2839       H  0.60176740  0.75881943  0.71521690     0.10700
H2840       H  0.65787689  0.69171346  0.72287261     0.16500
C2841       C  0.74438698  0.78316701  0.84961060    -0.01700
C2842       C  0.74142794  0.76276595  0.86367930     0.06900
C2843       C  0.72117850  0.76059309  0.87774037    -0.07700
C2844       C  0.70388373  0.77832101  0.87790295     0.04300
C2845       C  0.70671889  0.79876069  0.86370682    -0.14900
C2846       C  0.72714983  0.80094887  0.84978105    -0.08200
C2847       C  0.75966616  0.74390117  0.86465773     0.05300
C2848       C  0.78190376  0.74929506  0.87410901    -0.09400
C2849       C  0.79970142  0.73213147  0.87547971     0.00300
C2850       C  0.79546732  0.70889551  0.86695358     0.00100
C2851       C  0.77288307  0.70351890  0.85790165    -0.12900
C2852       C  0.75507262  0.72070343  0.85678384     0.00600
C2853       C  0.82180763  0.73897059  0.88625761     0.39900
C2854       C  0.73240640  0.71426266  0.84695040     0.36500
C2855       C  0.76469142  0.78598097  0.83444207     0.36200
C2856       C  0.68397500  0.77546421  0.89357499     0.37000
N2857       N  0.83946989  0.74457492  0.89493230    -0.43800
N2858       N  0.71422807  0.70907257  0.83913256    -0.44200
N2859       N  0.66807786  0.77317638  0.90620543    -0.41600
N2860       N  0.78095386  0.78822787  0.82227896    -0.43000
H2861       H  0.72948100  0.81639981  0.83866096     0.13100
H2862       H  0.71906853  0.74512726  0.88888080     0.09600
H2863       H  0.78528902  0.76701525  0.88062187     0.10700
H2864       H  0.76915321  0.68593476  0.85124212     0.16500
C2865       C  0.87582430  0.85756950  0.52102511    -0.01700
C2866       C  0.85483980  0.85849171  0.50754668     0.06900
C2867       C  0.83300531  0.85776477  0.51914283    -0.07700
C2868       C  0.83176939  0.85612414  0.54379365     0.04300
C2869       C  0.85277338  0.85554897  0.55743280    -0.14900
C2870       C  0.87465799  0.85613502  0.54575704    -0.08200
C2871       C  0.85510489  0.85833358  0.48127730     0.05300
C2872       C  0.86368824  0.83822440  0.46968049    -0.09400
C2873       C  0.86264353  0.83629267  0.44503537     0.00300
C2874       C  0.85299011  0.85501336  0.43129025     0.00100
C2875       C  0.84459823  0.87529176  0.44307707    -0.12900
C2876       C  0.84551059  0.87702509  0.46780380     0.00600
C2877       C  0.87051924  0.81428252  0.43472230     0.39900
C2878       C  0.83657979  0.89817173  0.47899125     0.36500
C2879       C  0.89871672  0.85822808  0.50984488     0.36200
C2880       C  0.80872587  0.85346041  0.55441770     0.37000
N2881       N  0.87677488  0.79657471  0.42657482    -0.43800
N2882       N  0.82939922  0.91508969  0.48799627    -0.44200
N2883       N  0.79029347  0.85114478  0.56292692    -0.41600
N2884       N  0.91704961  0.85871472  0.50084345    -0.43000
H2885       H  0.89087476  0.85554867  0.55596154     0.13100
H2886       H  0.81685557  0.85775525  0.50880618     0.09600
H2887       H  0.87061969  0.82362050  0.48004816     0.10700
H2888       H  0.83716701  0.88983193  0.43299505     0.16500
C2889       C  0.97543593  0.87968292  0.64417840    -0.01700
C2890       C  0.98922035  0.86114887  0.63483965     0.06900
C2891       C  0.97789717  0.84110863  0.62568851    -0.07700
C2892       C  0.95326927  0.83878900  0.62666693     0.04300
C2893       C  0.93933538  0.85684314  0.63728194    -0.14900
C2894       C  0.95082214  0.87742080  0.64536581    -0.08200
C2895       C  0.01542850  0.86119279  0.63679840     0.05300
C2896       C  0.02551675  0.86112464  0.65946026    -0.09400
C2897       C  0.04999515  0.85982857  0.66255645     0.00300
C2898       C  0.06502605  0.85871614  0.64264234     0.00100
C2899       C  0.05491649  0.85866885  0.61990508    -0.12900
C2900       C  0.03032463  0.85990533  0.61685824     0.00600
C2901       C  0.05903584  0.85807561  0.68640038     0.39900
C2902       C  0.02079002  0.86003498  0.59316625     0.36500
C2903       C  0.98623902  0.90116687  0.65277400     0.36200
C2904       C  0.94322652  0.81719291  0.61739801     0.37000
N2905       N  0.06625355  0.85651157  0.70549786    -0.43800
N2906       N  0.01313903  0.86010996  0.57417543    -0.44200
N2907       N  0.93531263  0.79986256  0.60989629    -0.41600
N2908       N  0.99496166  0.91837543  0.65960791    -0.43000
H2909       H  0.94063267  0.89171266  0.65305119     0.13100
H2910       H  0.98844867  0.82678392  0.61854564     0.09600
H2911       H  0.01412160  0.86145672  0.67484693     0.10700
H2912       H  0.06624338  0.85768977  0.60450583     0.16500
C2913       C  0.84571056  0.97630362  0.61836987    -0.01700
C2914       C  0.85944504  0.99007146  0.63399219     0.06900
C2915       C  0.87318489  0.97857542  0.65117342    -0.07700
C2916       C  0.87302838  0.95386124  0.65339889     0.04300
C2917       C  0.85844228  0.93995686  0.63838712    -0.14900
C2918       C  0.84530526  0.95161621  0.62066101    -0.08200
C2919       C  0.85854723  0.01645612  0.63377514     0.05300
C2920       C  0.83675195  0.02768022  0.63744498    -0.09400
C2921       C  0.83508079  0.05236097  0.63864682     0.00300
C2922       C  0.85559766  0.06645492  0.63632349     0.00100
C2923       C  0.87745961  0.05525238  0.63273949    -0.12900
C2924       C  0.87905016  0.03048582  0.63128892     0.00600
C2925       C  0.81226649  0.06264949  0.64369445     0.39900
C2926       C  0.90181381  0.01985594  0.62689022     0.36500
C2927       C  0.83184343  0.98708965  0.59980189     0.36200
C2928       C  0.88793606  0.94359681  0.67145224     0.37000
N2929       N  0.79401571  0.07089663  0.64781898    -0.43800
N2930       N  0.92001603  0.01122787  0.62338059    -0.44200
N2931       N  0.89995568  0.93545790  0.68590732    -0.41600
N2932       N  0.82069096  0.99570307  0.58493689    -0.43000
H2933       H  0.83421021  0.94151762  0.60873103     0.13100
H2934       H  0.88372216  0.98904164  0.66331028     0.09600
H2935       H  0.82099453  0.01703887  0.63994563     0.10700
H2936       H  0.89330617  0.06588225  0.63090972     0.16500
C2937       C  0.78259383  0.76183338  0.60674422    -0.01700
C2938       C  0.76220631  0.76226452  0.62089679     0.06900
C2939       C  0.75856103  0.78101883  0.63666352    -0.07700
C2940       C  0.77501249  0.79936101  0.63856154     0.04300
C2941       C  0.79547200  0.79911501  0.62424033    -0.14900
C2942       C  0.79900840  0.78019961  0.60847556    -0.08200
C2943       C  0.74464301  0.74302578  0.62006382     0.05300
C2944       C  0.75018561  0.72130092  0.63062510    -0.09400
C2945       C  0.73338418  0.70321730  0.63186000     0.00300
C2946       C  0.71057289  0.70682543  0.62219980     0.00100
C2947       C  0.70531403  0.72853704  0.61122380    -0.12900
C2948       C  0.72214189  0.74657293  0.61008582     0.00600
C2949       C  0.73968078  0.68182474  0.64437887     0.39900
C2950       C  0.71602931  0.76856769  0.59857552     0.36500
C2951       C  0.78686511  0.74288884  0.59016594     0.36200
C2952       C  0.77094962  0.81743978  0.65615449     0.37000
N2953       N  0.74483051  0.66477985  0.65451222    -0.43800
N2954       N  0.71122260  0.78621249  0.58934113    -0.44200
N2955       N  0.76765868  0.83182378  0.67033715    -0.41600
N2956       N  0.79030091  0.72771920  0.57686895    -0.43000
H2957       H  0.81459427  0.77979367  0.59738229     0.13100
H2958       H  0.74298522  0.78107520  0.64778707     0.09600
H2959       H  0.76747713  0.71875243  0.63850843     0.10700
H2960       H  0.68798598  0.73146608  0.60356847     0.16500
C2961       C  0.88526624  0.72229557  0.75248873    -0.01700
C2962       C  0.87670355  0.74544572  0.75603953     0.06900
C2963       C  0.86821646  0.75182415  0.77843104    -0.07700
C2964       C  0.86807026  0.73560702  0.79718008     0.04300
C2965       C  0.87618397  0.71212115  0.79356992    -0.14900
C2966       C  0.88490731  0.70595254  0.77108414    -0.08200
C2967       C  0.87615312  0.76317411  0.73657439     0.05300
C2968       C  0.86298354  0.75829965  0.71610117    -0.09400
C2969       C  0.86173930  0.77462957  0.69747823     0.00300
C2970       C  0.87398949  0.79644419  0.69912166     0.00100
C2971       C  0.88699254  0.80129791  0.71978189    -0.12900
C2972       C  0.88811198  0.78498574  0.73838621     0.00600
C2973       C  0.84683375  0.76886529  0.67752671     0.39900
C2974       C  0.90184758  0.79096774  0.75907792     0.36500
C2975       C  0.89479414  0.71493012  0.72999257     0.36200
C2976       C  0.85895027  0.74369151  0.81958807     0.37000
N2977       N  0.83481174  0.76420808  0.66162013    -0.43800
N2978       N  0.91270293  0.79578103  0.77575164    -0.44200
N2979       N  0.85171511  0.75044304  0.83747781    -0.41600
N2980       N  0.90238437  0.70899715  0.71195843    -0.43000
H2981       H  0.89144019  0.68821432  0.76788217     0.13100
H2982       H  0.86142459  0.76954642  0.78119986     0.09600
H2983       H  0.85330820  0.74180171  0.71485093     0.10700
H2984       H  0.89641133  0.81790635  0.72143797     0.16500
C2985       C  0.78113085  0.86324294  0.73804685    -0.01700
C2986       C  0.76248084  0.87962753  0.73563461     0.06900
C2987       C  0.76260019  0.89550176  0.71658055    -0.07700
C2988       C  0.78075122  0.89495585  0.69974526     0.04300
C2989       C  0.79925174  0.87819562  0.70181846    -0.14900
C2990       C  0.79935402  0.86271376  0.72128924    -0.08200
C2991       C  0.74268804  0.88036206  0.75284741     0.05300
C2992       C  0.74672025  0.88970476  0.77541038    -0.09400
C2993       C  0.72892412  0.88962014  0.79260856     0.00300
C2994       C  0.70639689  0.87980343  0.78737351     0.00100
C2995       C  0.70229970  0.87116081  0.76438405    -0.12900
C2996       C  0.72017995  0.87131998  0.74724144     0.00600
C2997       C  0.73445430  0.89995779  0.81531224     0.39900
C2998       C  0.71536540  0.86122145  0.72429542     0.36500
C2999       C  0.78142032  0.84624185  0.75712134     0.36200
C3000       C  0.78027861  0.91221857  0.68089941     0.37000
N3001       N  0.73898781  0.90823788  0.83347671    -0.43800
N3002       N  0.71157785  0.85307152  0.70590978    -0.44200
N3003       N  0.77997354  0.92608023  0.66582449    -0.41600
N3004       N  0.78152979  0.83259693  0.77239170    -0.43000
H3005       H  0.81327635  0.84964562  0.72301131     0.13100
H3006       H  0.74845042  0.90832224  0.71487099     0.09600
H3007       H  0.76396725  0.89692058  0.77964597     0.10700
H3008       H  0.68530818  0.86353277  0.75994051     0.16500
loop_ 
_geom_bond_atom_site_label_1 
_geom_bond_atom_site_label_2 
_geom_bond_distance 
_geom_bond_site_symmetry_2 
_ccdc_geom_bond_type 
Fe1          O17   2.062       .  S
Fe1           O7   2.067       .  S
Fe1          O14   2.067       .  S
Fe1           O6   2.056       .  S
Fe1          O12   1.965       .  S
Fe2           O5   2.073       .  S
Fe2           O9   2.077       .  S
Fe2          O13   2.070       .  S
Fe2          O18   2.070       .  S
Fe2          O12   1.966       .  S
Fe3          O21   2.063       .  S
Fe3           O8   2.061       .  S
Fe3          O15   2.064       .  S
Fe3           O4   2.062       .  S
Fe3          O12   1.968       .  S
O4           C11   1.269       .  A
O5           C19   1.272       .  A
O6           C11   1.268       .  A
O7           C10   1.269       .  A
O8           C20   1.268       .  A
O9           C22   1.272       .  A
C10          O15   1.269       .  A
C10        C2869   1.484       .  S
C11        C2941   1.477       .  S
O13          C16   1.269       .  A
O14          C16   1.267       .  A
C16        C2989   1.486       .  S
O17          C22   1.271       .  A
O18          C20   1.270       .  A
C19          O21   1.268       .  A
C19        C2893   1.496       .  S
C20        C2970   1.488       .  S
C22        C2917   1.497       .  S
Fe23         O39   2.062       .  S
Fe23         O29   2.060       .  S
Fe23         O36   2.066       .  S
Fe23         O28   2.057       .  S
Fe23         O34   1.974       .  S
Fe24         O27   2.060       .  S
Fe24         O31   2.059       .  S
Fe24         O35   2.061       .  S
Fe24         O40   2.059       .  S
Fe24         O34   1.972       .  S
Fe25         O43   2.070       .  S
Fe25         O30   2.079       .  S
Fe25         O37   2.083       .  S
Fe25         O26   2.074       .  S
Fe25         O34   1.977       .  S
O26          C33   1.270       .  A
O27          C41   1.268       .  A
O28          C33   1.269       .  A
O29          C32   1.269       .  A
O30          C42   1.271       .  A
O31          C44   1.267       .  A
C32          O37   1.272       .  A
C32        C2749   1.492       .  S
C33        C2821   1.493       .  S
O35          C38   1.269       .  A
O36          C38   1.269       .  A
C38        C2845   1.483       .  S
O39          C44   1.268       .  A
O40          C42   1.266       .  A
C41          O43   1.271       .  A
C41        C2773   1.478       .  S
C42        C2994   1.495       .  S
C44        C2797   1.484       .  S
Fe45         O61   2.072       .  S
Fe45         O51   2.067       .  S
Fe45         O58   2.062       .  S
Fe45         O50   2.069       .  S
Fe45         O56   1.975       .  S
Fe46         O49   2.067       .  S
Fe46         O53   2.070       .  S
Fe46         O57   2.063       .  S
Fe46         O62   2.066       .  S
Fe46         O56   1.976       .  S
Fe47         O65   2.063       .  S
Fe47         O52   2.062       .  S
Fe47         O59   2.061       .  S
Fe47         O48   2.059       .  S
Fe47         O56   1.977       .  S
O48          C55   1.267       .  A
O49          C63   1.270       .  A
O50          C55   1.269       .  A
O51          C54   1.270       .  A
O52          C64   1.269       .  A
O53          C66   1.270       .  A
C54          O59   1.270       .  A
C54        C2653   1.487       .  S
C55        C2725   1.482       .  S
O57          C60   1.268       .  A
O58          C60   1.269       .  A
C60        C2965   1.492       .  S
O61          C66   1.271       .  A
O62          C64   1.268       .  A
C63          O65   1.268       .  A
C63        C2701   1.488       .  S
C64        C2850   1.492       .  S
C66        C2677   1.491       .  S
Fe67         O83   2.061       .  S
Fe67         O73   2.058       .  S
Fe67         O80   2.060       .  S
Fe67         O72   2.060       .  S
Fe67         O78   1.979       .  S
Fe68         O71   2.079       .  S
Fe68         O75   2.063       .  S
Fe68         O79   2.067       .  S
Fe68         O84   2.058       .  S
Fe68         O78   1.980       .  S
Fe69         O87   2.050       .  S
Fe69         O74   2.073       .  S
Fe69         O81   2.074       .  S
Fe69         O70   2.054       .  S
Fe69         O78   1.979       .  S
O70          C77   1.268       .  A
O71          C85   1.273       .  A
O72          C77   1.268       .  A
O73          C76   1.267       .  A
O74          C86   1.269       .  A
O75          C88   1.269       .  A
C76          O81   1.270       .  A
C76        C2629   1.488       .  S
C77        C2946   1.478       .  S
O79          C82   1.269       .  A
O80          C82   1.267       .  A
C82        C2730   1.486       .  S
O83          C88   1.267       .  A
O84          C86   1.266       .  A
C85          O87   1.267       .  A
C85        C2581   1.491       .  S
C86        C2826   1.482       .  S
C88        C2605   1.475       .  S
Fe89        O105   2.071       .  S
Fe89         O95   2.067       .  S
Fe89        O102   2.066       .  S
Fe89         O94   2.069       .  S
Fe89        O100   1.969       .  S
Fe90         O93   2.060       .  S
Fe90         O97   2.069       .  S
Fe90        O101   2.056       .  S
Fe90        O106   2.073       .  S
Fe90        O100   1.972       .  S
Fe91        O109   2.069       .  S
Fe91         O96   2.060       .  S
Fe91        O103   2.063       .  S
Fe91         O92   2.066       .  S
Fe91        O100   1.971       .  S
O92          C99   1.269       .  A
O93         C107   1.269       .  A
O94          C99   1.270       .  A
O95          C98   1.270       .  A
O96         C108   1.267       .  A
O97         C110   1.269       .  A
C98         O103   1.269       .  A
C98        C2490   1.488       .  S
C99        C2557   1.489       .  S
O101        C104   1.269       .  A
O102        C104   1.269       .  A
C104       C2533   1.490       .  S
O105        C110   1.269       .  A
O106        C108   1.269       .  A
C107        O109   1.271       .  A
C107       C2466   1.484       .  S
C108       C2509   1.491       .  S
C110       C2922   1.484       .  S
Fe111       O127   2.063       .  S
Fe111       O117   2.059       .  S
Fe111       O124   2.058       .  S
Fe111       O116   2.064       .  S
Fe111       O122   1.978       .  S
Fe112       O115   2.067       .  S
Fe112       O119   2.058       .  S
Fe112       O123   2.068       .  S
Fe112       O128   2.058       .  S
Fe112       O122   1.979       .  S
Fe113       O131   2.061       .  S
Fe113       O118   2.059       .  S
Fe113       O125   2.061       .  S
Fe113       O114   2.066       .  S
Fe113       O122   1.980       .  S
O114        C121   1.267       .  A
O115        C129   1.269       .  A
O116        C121   1.267       .  A
O117        C120   1.269       .  A
O118        C130   1.269       .  A
O119        C132   1.267       .  A
C120        O125   1.270       .  A
C120       C2365   1.483       .  S
C121       C2562   1.489       .  S
O123        C126   1.270       .  A
O124        C126   1.269       .  A
C126       C2413   1.487       .  S
O127        C132   1.268       .  A
O128        C130   1.267       .  A
C129        O131   1.269       .  A
C129       C2389   1.489       .  S
C130       C2442   1.483       .  S
C132       C2658   1.480       .  S
Fe133       O149   2.069       .  S
Fe133       O139   2.065       .  S
Fe133       O146   2.060       .  S
Fe133       O138   2.072       .  S
Fe133       O144   1.979       .  S
Fe134       O137   2.062       .  S
Fe134       O141   2.055       .  S
Fe134       O145   2.061       .  S
Fe134       O150   2.051       .  S
Fe134       O144   1.980       .  S
Fe135       O153   2.055       .  S
Fe135       O140   2.061       .  S
Fe135       O147   2.061       .  S
Fe135       O136   2.049       .  S
Fe135       O144   1.975       .  S
O136        C143   1.266       .  A
O137        C151   1.268       .  A
O138        C143   1.271       .  A
O139        C142   1.268       .  A
O140        C152   1.267       .  A
O141        C154   1.268       .  A
C142        O147   1.267       .  A
C142       C2298   1.491       .  S
C143       C2346   1.487       .  S
O145        C148   1.267       .  A
O146        C148   1.267       .  A
C148       C2538   1.483       .  S
O149        C154   1.271       .  A
O150        C152   1.265       .  A
C151        O153   1.268       .  A
C151       C2317   1.487       .  S
C152       C2437   1.478       .  S
C154       C2778   1.484       .  S
Fe155       O171   2.063       .  S
Fe155       O161   2.070       .  S
Fe155       O168   2.072       .  S
Fe155       O160   2.058       .  S
Fe155       O166   1.974       .  S
Fe156       O159   2.054       .  S
Fe156       O163   2.065       .  S
Fe156       O167   2.054       .  S
Fe156       O172   2.064       .  S
Fe156       O166   1.973       .  S
Fe157       O175   2.071       .  S
Fe157       O162   2.067       .  S
Fe157       O169   2.066       .  S
Fe157       O158   2.064       .  S
Fe157       O166   1.973       .  S
O158        C165   1.269       .  A
O159        C173   1.268       .  A
O160        C165   1.268       .  A
O161        C164   1.270       .  A
O162        C174   1.269       .  A
O163        C176   1.268       .  A
C164        O169   1.270       .  A
C164       C2245   1.490       .  S
C165       C2341   1.481       .  S
O167        C170   1.265       .  A
O168        C170   1.269       .  A
C170       C2418   1.487       .  S
O171        C176   1.270       .  A
O172        C174   1.269       .  A
C173        O175   1.269       .  A
C173       C2274   1.490       .  S
C174       C2514   1.489       .  S
C176       C2610   1.494       .  S
Fe177       O193   2.066       .  S
Fe177       O183   2.071       .  S
Fe177       O190   2.069       .  S
Fe177       O182   2.063       .  S
Fe177       O188   1.977       .  S
Fe178       O181   2.065       .  S
Fe178       O185   2.069       .  S
Fe178       O189   2.064       .  S
Fe178       O194   2.062       .  S
Fe178       O188   1.977       .  S
Fe179       O197   2.068       .  S
Fe179       O184   2.067       .  S
Fe179       O191   2.071       .  S
Fe179       O180   2.068       .  S
Fe179       O188   1.980       .  S
O180        C187   1.269       .  A
O181        C195   1.270       .  A
O182        C187   1.269       .  A
O183        C186   1.270       .  A
O184        C196   1.269       .  A
O185        C198   1.270       .  A
C186        O191   1.269       .  A
C186       C2125   1.498       .  S
C187       C2178   1.484       .  S
O189        C192   1.268       .  A
O190        C192   1.269       .  A
C192       C2197   1.486       .  S
O193        C198   1.269       .  A
O194        C196   1.267       .  A
C195        O197   1.271       .  A
C195       C2149   1.488       .  S
C196       C2221   1.491       .  S
C198       C2898   1.483       .  S
Fe199       O215   2.064       .  S
Fe199       O205   2.066       .  S
Fe199       O212   2.067       .  S
Fe199       O204   2.059       .  S
Fe199       O210   1.966       .  S
Fe200       O203   2.064       .  S
Fe200       O207   2.076       .  S
Fe200       O211   2.064       .  S
Fe200       O216   2.070       .  S
Fe200       O210   1.968       .  S
Fe201       O219   2.075       .  S
Fe201       O206   2.060       .  S
Fe201       O213   2.062       .  S
Fe201       O202   2.077       .  S
Fe201       O210   1.969       .  S
O202        C209   1.270       .  A
O203        C217   1.269       .  A
O204        C209   1.268       .  A
O205        C208   1.270       .  A
O206        C218   1.268       .  A
O207        C220   1.271       .  A
C208        O213   1.269       .  A
C208       C2053   1.480       .  S
C209       C2101   1.489       .  S
O211        C214   1.269       .  A
O212        C214   1.269       .  A
C214       C2077   1.481       .  S
O215        C220   1.269       .  A
O216        C218   1.270       .  A
C217        O219   1.271       .  A
C217       C2029   1.487       .  S
C218       C2226   1.481       .  S
C220       C2754   1.488       .  S
Fe221       O237   2.068       .  S
Fe221       O227   2.065       .  S
Fe221       O234   2.067       .  S
Fe221       O226   2.060       .  S
Fe221       O232   1.976       .  S
Fe222       O225   2.061       .  S
Fe222       O229   2.065       .  S
Fe222       O233   2.063       .  S
Fe222       O238   2.058       .  S
Fe222       O232   1.978       .  S
Fe223       O241   2.077       .  S
Fe223       O228   2.059       .  S
Fe223       O235   2.066       .  S
Fe223       O224   2.073       .  S
Fe223       O232   1.980       .  S
O224        C231   1.271       .  A
O225        C239   1.269       .  A
O226        C231   1.267       .  A
O227        C230   1.270       .  A
O228        C240   1.267       .  A
O229        C242   1.268       .  A
C230        O235   1.270       .  A
C230       C1981   1.487       .  S
C231       C2106   1.496       .  S
O233        C236   1.269       .  A
O234        C236   1.269       .  A
C236       C2202   1.491       .  S
O237        C242   1.269       .  A
O238        C240   1.266       .  A
C239        O241   1.272       .  A
C239       C1957   1.483       .  S
C240       C2005   1.490       .  S
C242       C2682   1.490       .  S
Fe243       O259   2.061       .  S
Fe243       O249   2.073       .  S
Fe243       O256   2.073       .  S
Fe243       O248   2.060       .  S
Fe243       O254   1.971       .  S
Fe244       O247   2.064       .  S
Fe244       O251   2.070       .  S
Fe244       O255   2.057       .  S
Fe244       O260   2.065       .  S
Fe244       O254   1.969       .  S
Fe245       O263   2.072       .  S
Fe245       O250   2.054       .  S
Fe245       O257   2.055       .  S
Fe245       O246   2.070       .  S
Fe245       O254   1.970       .  S
O246        C253   1.270       .  A
O247        C261   1.271       .  A
O248        C253   1.268       .  A
O249        C252   1.270       .  A
O250        C262   1.266       .  A
O251        C264   1.270       .  A
C252        O257   1.267       .  A
C252       C1938   1.486       .  S
C253       C2173   1.487       .  S
O255        C258   1.268       .  A
O256        C258   1.270       .  A
C258       C2082   1.477       .  S
O259        C264   1.268       .  A
O260        C262   1.267       .  A
C261        O263   1.272       .  A
C261       C1909   1.490       .  S
C262       C2010   1.483       .  S
C264       C2586   1.482       .  S
Fe265       O281   2.068       .  S
Fe265       O271   2.056       .  S
Fe265       O278   2.053       .  S
Fe265       O270   2.069       .  S
Fe265       O276   1.978       .  S
Fe266       O269   2.066       .  S
Fe266       O273   2.068       .  S
Fe266       O277   2.065       .  S
Fe266       O282   2.066       .  S
Fe266       O276   1.978       .  S
Fe267       O285   2.058       .  S
Fe267       O272   2.072       .  S
Fe267       O279   2.071       .  S
Fe267       O268   2.050       .  S
Fe267       O276   1.980       .  S
O268        C275   1.266       .  A
O269        C283   1.270       .  A
O270        C275   1.271       .  A
O271        C274   1.266       .  A
O272        C284   1.269       .  A
O273        C286   1.271       .  A
C274        O279   1.269       .  A
C274       C2485   1.482       .  S
C275       C1842   1.483       .  S
O277        C280   1.268       .  A
O278        C280   1.265       .  A
C280       C1885   1.484       .  S
O281        C286   1.270       .  A
O282        C284   1.269       .  A
C283        O285   1.269       .  A
C283       C2154   1.482       .  S
C284       C1861   1.491       .  S
C286       C1813   1.495       .  S
Fe287       O303   2.066       .  S
Fe287       O293   2.063       .  S
Fe287       O300   2.062       .  S
Fe287       O292   2.062       .  S
Fe287       O298   1.976       .  S
Fe288       O291   2.067       .  S
Fe288       O295   2.068       .  S
Fe288       O299   2.064       .  S
Fe288       O304   2.065       .  S
Fe288       O298   1.978       .  S
Fe289       O307   2.062       .  S
Fe289       O294   2.057       .  S
Fe289       O301   2.061       .  S
Fe289       O290   2.066       .  S
Fe289       O298   1.979       .  S
O290        C297   1.269       .  A
O291        C305   1.271       .  A
O292        C297   1.268       .  A
O293        C296   1.269       .  A
O294        C306   1.266       .  A
O295        C308   1.269       .  A
C296        O301   1.268       .  A
C296       C1914   1.485       .  S
C297       C1789   1.489       .  S
O299        C302   1.269       .  A
O300        C302   1.268       .  A
C302       C1765   1.485       .  S
O303        C308   1.269       .  A
O304        C306   1.268       .  A
C305        O307   1.269       .  A
C305       C1741   1.485       .  S
C306       C1890   1.483       .  S
C308       C2250   1.486       .  S
Fe309       O325   2.059       .  S
Fe309       O315   2.063       .  S
Fe309       O322   2.067       .  S
Fe309       O314   2.055       .  S
Fe309       O320   1.973       .  S
Fe310       O313   2.064       .  S
Fe310       O317   2.073       .  S
Fe310       O321   2.063       .  S
Fe310       O326   2.067       .  S
Fe310       O320   1.972       .  S
Fe311       O329   2.066       .  S
Fe311       O316   2.063       .  S
Fe311       O323   2.072       .  S
Fe311       O312   2.067       .  S
Fe311       O320   1.976       .  S
O312        C319   1.268       .  A
O313        C327   1.269       .  A
O314        C319   1.269       .  A
O315        C318   1.268       .  A
O316        C328   1.270       .  A
O317        C330   1.272       .  A
C318        O323   1.270       .  A
C318       C1693   1.486       .  S
C319       C1722   1.489       .  S
O321        C324   1.267       .  A
O322        C324   1.268       .  A
C324       C1866   1.486       .  S
O325        C330   1.269       .  A
O326        C328   1.269       .  A
C327        O329   1.269       .  A
C327       C2293   1.482       .  S
C328       C1770   1.492       .  S
C330       C2034   1.485       .  S
Fe331       O347   2.064       .  S
Fe331       O337   2.062       .  S
Fe331       O344   2.057       .  S
Fe331       O336   2.062       .  S
Fe331       O342   1.977       .  S
Fe332       O335   2.058       .  S
Fe332       O339   2.058       .  S
Fe332       O343   2.055       .  S
Fe332       O348   2.059       .  S
Fe332       O342   1.977       .  S
Fe333       O351   2.074       .  S
Fe333       O338   2.059       .  S
Fe333       O345   2.061       .  S
Fe333       O334   2.072       .  S
Fe333       O342   1.975       .  S
O334        C341   1.270       .  A
O335        C349   1.267       .  A
O336        C341   1.268       .  A
O337        C340   1.269       .  A
O338        C350   1.268       .  A
O339        C352   1.268       .  A
C340        O345   1.269       .  A
C340       C1962   1.484       .  S
C341       C1794   1.484       .  S
O343        C346   1.266       .  A
O344        C346   1.266       .  A
C346       C1837   1.481       .  S
O347        C352   1.270       .  A
O348        C350   1.267       .  A
C349        O351   1.271       .  A
C349       C1674   1.494       .  S
C350       C1717   1.481       .  S
C352       C2370   1.483       .  S
Fe353       O369   2.073       .  S
Fe353       O359   2.062       .  S
Fe353       O366   2.055       .  S
Fe353       O358   2.067       .  S
Fe353       O364   1.981       .  S
Fe354       O357   2.074       .  S
Fe354       O361   2.059       .  S
Fe354       O365   2.076       .  S
Fe354       O370   2.059       .  S
Fe354       O364   1.977       .  S
Fe355       O373   2.055       .  S
Fe355       O360   2.068       .  S
Fe355       O367   2.062       .  S
Fe355       O356   2.060       .  S
Fe355       O364   1.980       .  S
O356        C363   1.268       .  A
O357        C371   1.271       .  A
O358        C363   1.270       .  A
O359        C362   1.268       .  A
O360        C372   1.268       .  A
O361        C374   1.267       .  A
C362        O367   1.268       .  A
C362       C1573   1.482       .  S
C363       C1626   1.484       .  S
O365        C368   1.271       .  A
O366        C368   1.266       .  A
C368       C1597   1.491       .  S
O369        C374   1.271       .  A
O370        C372   1.267       .  A
C371        O373   1.269       .  A
C371       C1549   1.488       .  S
C372       C1645   1.491       .  S
C374       C2874   1.493       .  S
Fe375       O391   2.062       .  S
Fe375       O381   2.052       .  S
Fe375       O388   2.051       .  S
Fe375       O380   2.064       .  S
Fe375       O386   1.970       .  S
Fe376       O379   2.064       .  S
Fe376       O383   2.060       .  S
Fe376       O387   2.069       .  S
Fe376       O392   2.061       .  S
Fe376       O386   1.971       .  S
Fe377       O395   2.071       .  S
Fe377       O382   2.075       .  S
Fe377       O389   2.076       .  S
Fe377       O378   2.071       .  S
Fe377       O386   1.967       .  S
O378        C385   1.270       .  A
O379        C393   1.270       .  A
O380        C385   1.269       .  A
O381        C384   1.266       .  A
O382        C394   1.271       .  A
O383        C396   1.267       .  A
C384        O389   1.272       .  A
C384       C1453   1.484       .  S
C385       C1506   1.489       .  S
O387        C390   1.270       .  A
O388        C390   1.266       .  A
C390       C1525   1.475       .  S
O391        C396   1.268       .  A
O392        C394   1.267       .  A
C393        O395   1.272       .  A
C393       C1482   1.490       .  S
C394       C1650   1.479       .  S
C396       C2706   1.487       .  S
Fe397       O413   2.062       .  S
Fe397       O403   2.055       .  S
Fe397       O410   2.047       .  S
Fe397       O402   2.065       .  S
Fe397       O408   1.978       .  S
Fe398       O401   2.076       .  S
Fe398       O405   2.062       .  S
Fe398       O409   2.069       .  S
Fe398       O414   2.060       .  S
Fe398       O408   1.981       .  S
Fe399       O417   2.057       .  S
Fe399       O404   2.068       .  S
Fe399       O411   2.073       .  S
Fe399       O400   2.060       .  S
Fe399       O408   1.974       .  S
O400        C407   1.267       .  A
O401        C415   1.272       .  A
O402        C407   1.269       .  A
O403        C406   1.266       .  A
O404        C416   1.269       .  A
O405        C418   1.269       .  A
C406        O411   1.271       .  A
C406       C1405   1.486       .  S
C407       C1621   1.489       .  S
O409        C412   1.269       .  A
O410        C412   1.265       .  A
C412       C1530   1.482       .  S
O413        C418   1.269       .  A
O414        C416   1.268       .  A
C415        O417   1.267       .  A
C415       C1381   1.494       .  S
C416       C1429   1.489       .  S
C418       C2802   1.480       .  S
Fe419       O435   2.069       .  S
Fe419       O425   2.067       .  S
Fe419       O432   2.067       .  S
Fe419       O424   2.068       .  S
Fe419       O430   1.972       .  S
Fe420       O423   2.059       .  S
Fe420       O427   2.066       .  S
Fe420       O431   2.059       .  S
Fe420       O436   2.067       .  S
Fe420       O430   1.973       .  S
Fe421       O439   2.074       .  S
Fe421       O426   2.060       .  S
Fe421       O433   2.065       .  S
Fe421       O422   2.068       .  S
Fe421       O430   1.974       .  S
O422        C429   1.269       .  A
O423        C437   1.268       .  A
O424        C429   1.270       .  A
O425        C428   1.270       .  A
O426        C438   1.267       .  A
O427        C440   1.268       .  A
C428        O433   1.269       .  A
C428       C1357   1.493       .  S
C429       C1501   1.491       .  S
O431        C434   1.269       .  A
O432        C434   1.269       .  A
C434       C1602   1.486       .  S
O435        C440   1.271       .  A
O436        C438   1.269       .  A
C437        O439   1.271       .  A
C437       C1333   1.484       .  S
C438       C1434   1.482       .  S
C440       C2634   1.494       .  S
Fe441       O457   2.065       .  S
Fe441       O447   2.065       .  S
Fe441       O454   2.066       .  S
Fe441       O446   2.066       .  S
Fe441       O452   1.979       .  S
Fe442       O445   2.065       .  S
Fe442       O449   2.070       .  S
Fe442       O453   2.065       .  S
Fe442       O458   2.072       .  S
Fe442       O452   1.979       .  S
Fe443       O461   2.056       .  S
Fe443       O448   2.067       .  S
Fe443       O455   2.071       .  S
Fe443       O444   2.057       .  S
Fe443       O452   1.982       .  S
O444        C451   1.267       .  A
O445        C459   1.268       .  A
O446        C451   1.268       .  A
O447        C450   1.269       .  A
O448        C460   1.268       .  A
O449        C462   1.269       .  A
C450        O455   1.271       .  A
C450       C1410   1.489       .  S
C451       C1285   1.485       .  S
O453        C456   1.268       .  A
O454        C456   1.270       .  A
C456       C1314   1.494       .  S
O457        C462   1.269       .  A
O458        C460   1.271       .  A
C459        O461   1.267       .  A
C459       C2322   1.475       .  S
C460       C1261   1.498       .  S
C462       C1237   1.490       .  S
Fe463       O479   2.056       .  S
Fe463       O469   2.071       .  S
Fe463       O476   2.071       .  S
Fe463       O468   2.054       .  S
Fe463       O474   1.970       .  S
Fe464       O467   2.067       .  S
Fe464       O471   2.077       .  S
Fe464       O475   2.067       .  S
Fe464       O480   2.077       .  S
Fe464       O474   1.971       .  S
Fe465       O483   2.074       .  S
Fe465       O470   2.058       .  S
Fe465       O477   2.058       .  S
Fe465       O466   2.076       .  S
Fe465       O474   1.973       .  S
O466        C473   1.271       .  A
O467        C481   1.270       .  A
O468        C473   1.267       .  A
O469        C472   1.269       .  A
O470        C482   1.267       .  A
O471        C484   1.272       .  A
C472        O477   1.268       .  A
C472       C2269   1.488       .  S
C473       C1189   1.480       .  S
O475        C478   1.270       .  A
O476        C478   1.269       .  A
C478       C1213   1.496       .  S
O479        C484   1.268       .  A
O480        C482   1.271       .  A
C481        O483   1.271       .  A
C481       C1165   1.491       .  S
C482       C1309   1.487       .  S
C484       C1362   1.485       .  S
Fe485       O501   2.072       .  S
Fe485       O491   2.053       .  S
Fe485       O498   2.055       .  S
Fe485       O490   2.065       .  S
Fe485       O496   1.970       .  S
Fe486       O489   2.078       .  S
Fe486       O493   2.058       .  S
Fe486       O497   2.074       .  S
Fe486       O502   2.059       .  S
Fe486       O496   1.976       .  S
Fe487       O505   2.063       .  S
Fe487       O492   2.078       .  S
Fe487       O499   2.075       .  S
Fe487       O488   2.066       .  S
Fe487       O496   1.973       .  S
O488        C495   1.269       .  A
O489        C503   1.270       .  A
O490        C495   1.267       .  A
O491        C494   1.269       .  A
O492        C504   1.272       .  A
O493        C506   1.269       .  A
C494        O499   1.271       .  A
C494       C2461   1.484       .  S
C495       C1194   1.494       .  S
O497        C500   1.269       .  A
O498        C500   1.266       .  A
C500       C1290   1.475       .  S
O501        C506   1.271       .  A
O502        C504   1.268       .  A
C503        O505   1.268       .  A
C503       C1117   1.488       .  S
C504       C1141   1.485       .  S
C506       C1578   1.484       .  S
Fe507       O523   2.062       .  S
Fe507       O513   2.068       .  S
Fe507       O520   2.071       .  S
Fe507       O512   2.061       .  S
Fe507       O518   1.977       .  S
Fe508       O511   2.072       .  S
Fe508       O515   2.075       .  S
Fe508       O519   2.065       .  S
Fe508       O524   2.069       .  S
Fe508       O518   1.977       .  S
Fe509       O527   2.065       .  S
Fe509       O514   2.061       .  S
Fe509       O521   2.067       .  S
Fe509       O510   2.066       .  S
Fe509       O518   1.972       .  S
O510        C517   1.269       .  A
O511        C525   1.272       .  A
O512        C517   1.268       .  A
O513        C516   1.270       .  A
O514        C526   1.267       .  A
O515        C528   1.271       .  A
C516        O521   1.269       .  A
C516       C1093   1.491       .  S
C517       C1146   1.485       .  S
O519        C522   1.269       .  A
O520        C522   1.270       .  A
C522       C1266   1.483       .  S
O523        C528   1.268       .  A
O524        C526   1.268       .  A
C525        O527   1.270       .  A
C525       C1458   1.493       .  S
C526       C1218   1.488       .  S
C528       C2394   1.490       .  S
Fe529       O545   2.066       .  S
Fe529       O535   2.073       .  S
Fe529       O542   2.066       .  S
Fe529       O534   2.068       .  S
Fe529       O540   1.974       .  S
Fe530       O533   2.061       .  S
Fe530       O537   2.080       .  S
Fe530       O541   2.057       .  S
Fe530       O546   2.081       .  S
Fe530       O540   1.973       .  S
Fe531       O549   2.068       .  S
Fe531       O536   2.061       .  S
Fe531       O543   2.063       .  S
Fe531       O532   2.067       .  S
Fe531       O540   1.972       .  S
O532        C539   1.269       .  A
O533        C547   1.268       .  A
O534        C539   1.270       .  A
O535        C538   1.270       .  A
O536        C548   1.268       .  A
O537        C550   1.273       .  A
C538        O543   1.269       .  A
C538       C1818   1.482       .  S
C539       C1021   1.490       .  S
O541        C544   1.266       .  A
O542        C544   1.268       .  A
C544       C1069   1.481       .  S
O545        C550   1.272       .  A
O546        C548   1.273       .  A
C547        O549   1.268       .  A
C547        C997   1.486       .  S
C548       C1050   1.497       .  S
C550       C1122   1.495       .  S
Fe551       O567   2.059       .  S
Fe551       O557   2.072       .  S
Fe551       O564   2.066       .  S
Fe551       O556   2.057       .  S
Fe551       O562   1.965       .  S
Fe552       O555   2.060       .  S
Fe552       O559   2.080       .  S
Fe552       O563   2.056       .  S
Fe552       O568   2.076       .  S
Fe552       O562   1.961       .  S
Fe553       O571   2.075       .  S
Fe553       O558   2.053       .  S
Fe553       O565   2.055       .  S
Fe553       O554   2.077       .  S
Fe553       O562   1.961       .  S
O554        C561   1.271       .  A
O555        C569   1.269       .  A
O556        C561   1.269       .  A
O557        C560   1.269       .  A
O558        C570   1.267       .  A
O559        C572   1.273       .  A
C560        O565   1.267       .  A
C560        C930   1.473       .  S
C561        C949   1.492       .  S
O563        C566   1.267       .  A
O564        C566   1.269       .  A
C566        C978   1.481       .  S
O567        C572   1.270       .  A
O568        C570   1.272       .  A
C569        O571   1.271       .  A
C569       C1098   1.490       .  S
C570       C1074   1.485       .  S
C572       C1669   1.484       .  S
Fe573       O589   2.063       .  S
Fe573       O579   2.071       .  S
Fe573       O586   2.061       .  S
Fe573       O578   2.060       .  S
Fe573       O584   1.981       .  S
Fe574       O577   2.075       .  S
Fe574       O581   2.063       .  S
Fe574       O585   2.076       .  S
Fe574       O590   2.052       .  S
Fe574       O584   1.980       .  S
Fe575       O593   2.063       .  S
Fe575       O580   2.063       .  S
Fe575       O587   2.062       .  S
Fe575       O576   2.063       .  S
Fe575       O584   1.980       .  S
O576        C583   1.268       .  A
O577        C591   1.272       .  A
O578        C583   1.267       .  A
O579        C582   1.271       .  A
O580        C592   1.267       .  A
O581        C594   1.268       .  A
C582        O587   1.269       .  A
C582       C1242   1.486       .  S
C583        C901   1.480       .  S
O585        C588   1.270       .  A
O586        C588   1.268       .  A
C588       C1045   1.482       .  S
O589        C594   1.269       .  A
O590        C592   1.266       .  A
C591        O593   1.268       .  A
C591       C1698   1.498       .  S
C592        C973   1.486       .  S
C594        C877   1.477       .  S
Fe595       O611   2.061       .  S
Fe595       O601   2.072       .  S
Fe595       O608   2.074       .  S
Fe595       O600   2.059       .  S
Fe595       O606   1.966       .  S
Fe596       O599   2.064       .  S
Fe596       O603   2.073       .  S
Fe596       O607   2.055       .  S
Fe596       O612   2.068       .  S
Fe596       O606   1.967       .  S
Fe597       O615   2.067       .  S
Fe597       O602   2.066       .  S
Fe597       O609   2.069       .  S
Fe597       O598   2.065       .  S
Fe597       O606   1.963       .  S
O598        C605   1.268       .  A
O599        C613   1.271       .  A
O600        C605   1.269       .  A
O601        C604   1.271       .  A
O602        C614   1.269       .  A
O603        C616   1.270       .  A
C604        O609   1.270       .  A
C604       C1170   1.488       .  S
C605        C906   1.493       .  S
O607        C610   1.268       .  A
O608        C610   1.271       .  A
C610        C954   1.480       .  S
O611        C616   1.268       .  A
O612        C614   1.268       .  A
C613        O615   1.270       .  A
C613       C1746   1.488       .  S
C614       C1026   1.489       .  S
C616        C853   1.480       .  S
Fe617       O633   2.045       .  S
Fe617       O623   2.082       .  S
Fe617       O630   2.085       .  S
Fe617       O622   2.057       .  S
Fe617       O628   1.964       .  S
Fe618       O621   2.051       .  S
Fe618       O625   2.090       .  S
Fe618       O629   2.048       .  S
Fe618       O634   2.085       .  S
Fe618       O628   1.970       .  S
Fe619       O637   2.084       .  S
Fe619       O624   2.042       .  S
Fe619       O631   2.050       .  S
Fe619       O620   2.082       .  S
Fe619       O628   1.968       .  S
O620        C627   1.273       .  A
O621        C635   1.268       .  A
O622        C627   1.268       .  A
O623        C626   1.272       .  A
O624        C636   1.264       .  A
O625        C638   1.274       .  A
C626        O631   1.266       .  A
C626       C1986   1.476       .  S
C627        C786   1.491       .  S
O629        C632   1.266       .  A
O630        C632   1.272       .  A
C632        C829   1.482       .  S
O633        C638   1.265       .  A
O634        C636   1.272       .  A
C635        O637   1.275       .  A
C635       C1477   1.491       .  S
C636        C805   1.485       .  S
C638        C925   1.495       .  S
Fe639       O655   2.063       .  S
Fe639       O645   2.065       .  S
Fe639       O652   2.059       .  S
Fe639       O644   2.060       .  S
Fe639       O650   1.980       .  S
Fe640       O643   2.066       .  S
Fe640       O647   2.065       .  S
Fe640       O651   2.071       .  S
Fe640       O656   2.066       .  S
Fe640       O650   1.979       .  S
Fe641       O659   2.064       .  S
Fe641       O646   2.061       .  S
Fe641       O653   2.062       .  S
Fe641       O642   2.062       .  S
Fe641       O650   1.980       .  S
O642        C649   1.269       .  A
O643        C657   1.269       .  A
O644        C649   1.268       .  A
O645        C648   1.268       .  A
O646        C658   1.267       .  A
O647        C660   1.270       .  A
C648        O653   1.268       .  A
C648       C1933   1.482       .  S
C649        C762   1.484       .  S
O651        C654   1.270       .  A
O652        C654   1.266       .  A
C654        C834   1.493       .  S
O655        C660   1.269       .  A
O656        C658   1.269       .  A
C657        O659   1.269       .  A
C657       C1338   1.486       .  S
C658        C733   1.483       .  S
C660        C858   1.492       .  S
Fe661       O677   2.057       .  S
Fe661       O667   2.077       .  S
Fe661       O674   2.072       .  S
Fe661       O666   2.056       .  S
Fe661       O672   1.972       .  S
Fe662       O665   2.068       .  S
Fe662       O669   2.072       .  S
Fe662       O673   2.059       .  S
Fe662       O678   2.069       .  S
Fe662       O672   1.975       .  S
Fe663       O681   2.078       .  S
Fe663       O668   2.050       .  S
Fe663       O675   2.059       .  S
Fe663       O664   2.079       .  S
Fe663       O672   1.974       .  S
O664        C671   1.270       .  A
O665        C679   1.269       .  A
O666        C671   1.266       .  A
O667        C670   1.272       .  A
O668        C680   1.266       .  A
O669        C682   1.271       .  A
C670        O675   1.270       .  A
C670       C1002   1.493       .  S
C671        C714   1.488       .  S
O673        C676   1.267       .  A
O674        C676   1.270       .  A
C676        C810   1.489       .  S
O677        C682   1.268       .  A
O678        C680   1.270       .  A
C679        O681   1.272       .  A
C679       C2130   1.492       .  S
C680        C757   1.480       .  S
C682       C1554   1.485       .  S
Fe683       O699   2.061       .  S
Fe683       O689   2.065       .  S
Fe683       O696   2.065       .  S
Fe683       O688   2.061       .  S
Fe683       O694   1.976       .  S
Fe684       O687   2.065       .  S
Fe684       O691   2.071       .  S
Fe684       O695   2.066       .  S
Fe684       O700   2.071       .  S
Fe684       O694   1.979       .  S
Fe685       O703   2.065       .  S
Fe685       O690   2.067       .  S
Fe685       O697   2.072       .  S
Fe685       O686   2.064       .  S
Fe685       O694   1.978       .  S
O686        C693   1.268       .  A
O687        C701   1.269       .  A
O688        C693   1.268       .  A
O689        C692   1.269       .  A
O690        C702   1.270       .  A
O691        C704   1.272       .  A
C692        O697   1.270       .  A
C692       C1386   1.488       .  S
C693        C738   1.486       .  S
O695        C698   1.268       .  A
O696        C698   1.268       .  A
C698        C781   1.490       .  S
O699        C704   1.269       .  A
O700        C702   1.270       .  A
C701        O703   1.268       .  A
C701        C882   1.492       .  S
C702        C709   1.488       .  S
C704       C2058   1.490       .  S
C705        C706   1.409       .  A
C705        C710   1.403       .  A
C705        C719   1.444       .  S
C706        C711   1.484       .  S
C706        C707   1.401       .  A
C707        C708   1.401       .  A
C707        H726   1.084       .  S
C708        C709   1.417       .  A
C708        C720   1.444       .  S
C709        C710   1.407       .  A
C710        H725   1.084       .  S
C711        C712   1.400       .  A
C711        C716   1.409       .  A
C712        C713   1.401       .  A
C712        H727   1.084       .  S
C713        C714   1.418       .  A
C713        C717   1.445       .  S
C714        C715   1.407       .  A
C715        C716   1.403       .  A
C715        H728   1.083       .  S
C716        C718   1.443       .  S
C717        N721   1.157       .  T
C718        N722   1.157       .  T
C719        N724   1.157       .  T
C720        N723   1.157       .  T
C729        C730   1.409       .  A
C729        C734   1.401       .  A
C729        C743   1.444       .  S
C730        C735   1.482       .  S
C730        C731   1.402       .  A
C731        C732   1.401       .  A
C731        H750   1.084       .  S
C732        C733   1.415       .  A
C732        C744   1.444       .  S
C733        C734   1.407       .  A
C734        H749   1.084       .  S
C735        C736   1.401       .  A
C735        C740   1.408       .  A
C736        C737   1.402       .  A
C736        H751   1.084       .  S
C737        C738   1.417       .  A
C737        C741   1.444       .  S
C738        C739   1.407       .  A
C739        C740   1.399       .  A
C739        H752   1.084       .  S
C740        C742   1.444       .  S
C741        N745   1.157       .  T
C742        N746   1.157       .  T
C743        N748   1.157       .  T
C744        N747   1.157       .  T
C753        C754   1.408       .  A
C753        C758   1.399       .  A
C753        C767   1.444       .  S
C754        C759   1.478       .  S
C754        C755   1.400       .  A
C755        C756   1.398       .  A
C755        H774   1.084       .  S
C756        C757   1.416       .  A
C756        C768   1.445       .  S
C757        C758   1.406       .  A
C758        H773   1.084       .  S
C759        C760   1.399       .  A
C759        C764   1.408       .  A
C760        C761   1.398       .  A
C760        H775   1.084       .  S
C761        C762   1.417       .  A
C761        C765   1.444       .  S
C762        C763   1.407       .  A
C763        C764   1.399       .  A
C763        H776   1.084       .  S
C764        C766   1.444       .  S
C765        N769   1.157       .  T
C766        N770   1.157       .  T
C767        N772   1.157       .  T
C768        N771   1.157       .  T
C777        C778   1.410       .  A
C777        C782   1.402       .  A
C777        C791   1.444       .  S
C778        C783   1.489       .  S
C778        C779   1.403       .  A
C779        C780   1.403       .  A
C779        H798   1.084       .  S
C780        C781   1.417       .  A
C780        C792   1.445       .  S
C781        C782   1.408       .  A
C782        H797   1.084       .  S
C783        C784   1.402       .  A
C783        C788   1.410       .  A
C784        C785   1.402       .  A
C784        H799   1.084       .  S
C785        C786   1.419       .  A
C785        C789   1.445       .  S
C786        C787   1.407       .  A
C787        C788   1.402       .  A
C787        H800   1.084       .  S
C788        C790   1.443       .  S
C789        N793   1.158       .  T
C790        N794   1.157       .  T
C791        N796   1.157       .  T
C792        N795   1.157       .  T
C801        C802   1.409       .  A
C801        C806   1.402       .  A
C801        C815   1.443       .  S
C802        C807   1.482       .  S
C802        C803   1.399       .  A
C803        C804   1.399       .  A
C803        H822   1.084       .  S
C804        C805   1.419       .  A
C804        C816   1.445       .  S
C805        C806   1.406       .  A
C806        H821   1.084       .  S
C807        C808   1.400       .  A
C807        C812   1.408       .  A
C808        C809   1.400       .  A
C808        H823   1.084       .  S
C809        C810   1.418       .  A
C809        C813   1.445       .  S
C810        C811   1.408       .  A
C811        C812   1.401       .  A
C811        H824   1.084       .  S
C812        C814   1.444       .  S
C813        N817   1.157       .  T
C814        N818   1.157       .  T
C815        N820   1.157       .  T
C816        N819   1.157       .  T
C825        C826   1.409       .  A
C825        C830   1.398       .  A
C825        C839   1.444       .  S
C826        C831   1.484       .  S
C826        C827   1.404       .  A
C827        C828   1.403       .  A
C827        H846   1.084       .  S
C828        C829   1.414       .  A
C828        C840   1.444       .  S
C829        C830   1.406       .  A
C830        H845   1.084       .  S
C831        C832   1.401       .  A
C831        C836   1.408       .  A
C832        C833   1.402       .  A
C832        H847   1.084       .  S
C833        C834   1.421       .  A
C833        C837   1.445       .  S
C834        C835   1.408       .  A
C835        C836   1.401       .  A
C835        H848   1.084       .  S
C836        C838   1.444       .  S
C837        N841   1.158       .  T
C838        N842   1.157       .  T
C839        N844   1.157       .  T
C840        N843   1.157       .  T
C849        C850   1.409       .  A
C849        C854   1.398       .  A
C849        C863   1.445       .  S
C850        C855   1.483       .  S
C850        C851   1.403       .  A
C851        C852   1.403       .  A
C851        H870   1.083       .  S
C852        C853   1.414       .  A
C852        C864   1.444       .  S
C853        C854   1.405       .  A
C854        H869   1.084       .  S
C855        C856   1.401       .  A
C855        C860   1.407       .  A
C856        C857   1.401       .  A
C856        H871   1.084       .  S
C857        C858   1.419       .  A
C857        C861   1.445       .  S
C858        C859   1.410       .  A
C859        C860   1.400       .  A
C859        H872   1.083       .  S
C860        C862   1.444       .  S
C861        N865   1.157       .  T
C862        N866   1.157       .  T
C863        N868   1.157       .  T
C864        N867   1.157       .  T
C873        C874   1.411       .  A
C873        C878   1.403       .  A
C873        C887   1.443       .  S
C874        C879   1.484   1_545  S
C874        C875   1.402       .  A
C875        C876   1.398       .  A
C875        H894   1.084       .  S
C876        C877   1.412       .  A
C876        C888   1.445       .  S
C877        C878   1.405       .  A
C878        H893   1.084       .  S
C879        C880   1.401       .  A
C879        C884   1.409       .  A
C880        C881   1.401       .  A
C880        H895   1.084       .  S
C881        C882   1.419       .  A
C881        C885   1.444       .  S
C882        C883   1.409       .  A
C883        C884   1.400       .  A
C883        H896   1.084       .  S
C884        C886   1.444       .  S
C885        N889   1.157       .  T
C886        N890   1.157   1_565  T
C887        N892   1.157       .  T
C888        N891   1.157       .  T
C897        C898   1.412       .  A
C897        C902   1.399       .  A
C897        C911   1.445       .  S
C898        C903   1.486       .  S
C898        C899   1.404       .  A
C899        C900   1.401       .  A
C899        H918   1.084       .  S
C900        C901   1.413       .  A
C900        C912   1.444       .  S
C901        C902   1.405       .  A
C902        H917   1.084       .  S
C903        C904   1.401       .  A
C903        C908   1.409       .  A
C904        C905   1.399       .  A
C904        H919   1.084       .  S
C905        C906   1.421       .  A
C905        C909   1.445       .  S
C906        C907   1.409       .  A
C907        C908   1.400       .  A
C907        H920   1.084       .  S
C908        C910   1.444       .  S
C909        N913   1.157       .  T
C910        N914   1.157       .  T
C911        N916   1.157       .  T
C912        N915   1.157       .  T
C921        C922   1.410       .  A
C921        C926   1.403       .  A
C921        C935   1.444       .  S
C922        C927   1.486       .  S
C922        C923   1.398       .  A
C923        C924   1.398       .  A
C923        H942   1.085       .  S
C924        C925   1.423       .  A
C924        C936   1.445       .  S
C925        C926   1.409       .  A
C926        H941   1.084       .  S
C927        C928   1.404       .  A
C927        C932   1.413       .  A
C928        C929   1.402       .  A
C928        H943   1.083       .  S
C929        C930   1.411       .  A
C929        C933   1.444       .  S
C930        C931   1.402       .  A
C931        C932   1.398       .  A
C931        H944   1.084       .  S
C932        C934   1.445       .  S
C933        N937   1.157       .  T
C934        N938   1.157       .  T
C935        N940   1.157       .  T
C936        N939   1.157       .  T
C945        C946   1.406       .  A
C945        C950   1.400       .  A
C945        C959   1.444       .  S
C946        C951   1.479       .  S
C946        C947   1.399       .  A
C947        C948   1.400       .  A
C947        H966   1.084       .  S
C948        C949   1.420       .  A
C948        C960   1.444       .  S
C949        C950   1.410       .  A
C950        H965   1.084       .  S
C951        C952   1.401       .  A
C951        C956   1.408       .  A
C952        C953   1.400       .  A
C952        H967   1.084       .  S
C953        C954   1.414       .  A
C953        C957   1.444       .  S
C954        C955   1.406       .  A
C955        C956   1.400       .  A
C955        H968   1.084       .  S
C956        C958   1.444       .  S
C957        N961   1.157       .  T
C958        N962   1.157       .  T
C959        N964   1.157       .  T
C960        N963   1.157       .  T
C969        C970   1.407       .  A
C969        C974   1.397       .  A
C969        C983   1.444       .  S
C970        C975   1.480       .  S
C970        C971   1.402       .  A
C971        C972   1.400       .  A
C971        H990   1.084       .  S
C972        C973   1.417       .  A
C972        C984   1.445       .  S
C973        C974   1.409       .  A
C974        H989   1.083       .  S
C975        C976   1.402       .  A
C975        C980   1.408       .  A
C976        C977   1.399       .  A
C976        H991   1.084       .  S
C977        C978   1.415       .  A
C977        C981   1.445       .  S
C978        C979   1.407       .  A
C979        C980   1.398       .  A
C979        H992   1.084       .  S
C980        C982   1.444       .  S
C981        N985   1.157       .  T
C982        N986   1.157       .  T
C983        N988   1.157       .  T
C984        N987   1.158       .  T
C993        C994   1.410       .  A
C993        C998   1.401       .  A
C993       C1007   1.444       .  S
C994        C999   1.487   1_545  S
C994        C995   1.403       .  A
C995        C996   1.401       .  A
C995       H1014   1.085       .  S
C996        C997   1.416       .  A
C996       C1008   1.444       .  S
C997        C998   1.406       .  A
C998       H1013   1.084       .  S
C999       C1000   1.402       .  A
C999       C1004   1.409       .  A
C1000      C1001   1.401       .  A
C1000      H1015   1.084       .  S
C1001      C1002   1.419       .  A
C1001      C1005   1.444       .  S
C1002      C1003   1.410       .  A
C1003      C1004   1.401       .  A
C1003      H1016   1.084       .  S
C1004      C1006   1.444       .  S
C1005      N1009   1.157       .  T
C1006      N1010   1.157       .  T
C1007      N1012   1.157       .  T
C1008      N1011   1.157       .  T
C1017      C1018   1.409       .  A
C1017      C1022   1.403       .  A
C1017      C1031   1.444       .  S
C1018      C1023   1.483       .  S
C1018      C1019   1.399       .  A
C1019      C1020   1.400       .  A
C1019      H1038   1.084       .  S
C1020      C1021   1.419       .  A
C1020      C1032   1.444       .  S
C1021      C1022   1.409       .  A
C1022      H1037   1.084       .  S
C1023      C1024   1.400       .  A
C1023      C1028   1.408       .  A
C1024      C1025   1.401       .  A
C1024      H1039   1.084       .  S
C1025      C1026   1.418       .  A
C1025      C1029   1.444       .  S
C1026      C1027   1.408       .  A
C1027      C1028   1.402       .  A
C1027      H1040   1.084       .  S
C1028      C1030   1.444       .  S
C1029      N1033   1.157       .  T
C1030      N1034   1.157       .  T
C1031      N1036   1.157       .  T
C1032      N1035   1.157       .  T
C1041      C1042   1.409       .  A
C1041      C1046   1.401       .  A
C1041      C1055   1.444       .  S
C1042      C1047   1.487       .  S
C1042      C1043   1.404       .  A
C1043      C1044   1.403       .  A
C1043      H1062   1.084       .  S
C1044      C1045   1.414       .  A
C1044      C1056   1.444       .  S
C1045      C1046   1.405       .  A
C1046      H1061   1.083       .  S
C1047      C1048   1.401       .  A
C1047      C1052   1.408       .  A
C1048      C1049   1.403       .  A
C1048      H1063   1.084       .  S
C1049      C1050   1.422       .  A
C1049      C1053   1.445       .  S
C1050      C1051   1.410       .  A
C1051      C1052   1.402       .  A
C1051      H1064   1.083       .  S
C1052      C1054   1.444       .  S
C1053      N1057   1.158       .  T
C1054      N1058   1.157       .  T
C1055      N1060   1.157       .  T
C1056      N1059   1.157       .  T
C1065      C1066   1.406       .  A
C1065      C1070   1.400       .  A
C1065      C1079   1.443       .  S
C1066      C1071   1.477       .  S
C1066      C1067   1.401       .  A
C1067      C1068   1.400       .  A
C1067      H1086   1.084       .  S
C1068      C1069   1.416       .  A
C1068      C1080   1.445       .  S
C1069      C1070   1.407       .  A
C1070      H1085   1.084       .  S
C1071      C1072   1.400       .  A
C1071      C1076   1.405       .  A
C1072      C1073   1.400       .  A
C1072      H1087   1.085       .  S
C1073      C1074   1.418       .  A
C1073      C1077   1.445       .  S
C1074      C1075   1.408       .  A
C1075      C1076   1.399       .  A
C1075      H1088   1.085       .  S
C1076      C1078   1.443       .  S
C1077      N1081   1.157       .  T
C1078      N1082   1.157       .  T
C1079      N1084   1.157       .  T
C1080      N1083   1.157       .  T
C1089      C1090   1.410       .  A
C1089      C1094   1.399       .  A
C1089      C1103   1.444       .  S
C1090      C1095   1.489   1_655  S
C1090      C1091   1.403       .  A
C1091      C1092   1.404       .  A
C1091      H1110   1.090       .  S
C1092      C1093   1.418       .  A
C1092      C1104   1.444       .  S
C1093      C1094   1.407       .  A
C1094      H1109   1.085       .  S
C1095      C1096   1.403       .  A
C1095      C1100   1.410       .  A
C1096      C1097   1.402       .  A
C1096      H1111   1.089       .  S
C1097      C1098   1.417       .  A
C1097      C1101   1.444       .  S
C1098      C1099   1.408       .  A
C1099      C1100   1.400       .  A
C1099      H1112   1.088       .  S
C1100      C1102   1.444       .  S
C1101      N1105   1.158       .  T
C1102      N1106   1.157       .  T
C1103      N1108   1.157   1_655  T
C1104      N1107   1.158       .  T
C1113      C1114   1.412       .  A
C1113      C1118   1.403       .  A
C1113      C1127   1.444       .  S
C1114      C1119   1.491   1_655  S
C1114      C1115   1.403       .  A
C1115      C1116   1.401       .  A
C1115      H1134   1.086       .  S
C1116      C1117   1.414       .  A
C1116      C1128   1.444       .  S
C1117      C1118   1.406       .  A
C1118      H1133   1.083       .  S
C1119      C1120   1.403       .  A
C1119      C1124   1.411       .  A
C1120      C1121   1.404       .  A
C1120      H1135   1.084       .  S
C1121      C1122   1.418       .  A
C1121      C1125   1.444       .  S
C1122      C1123   1.409       .  A
C1123      C1124   1.402       .  A
C1123      H1136   1.084       .  S
C1124      C1126   1.444       .  S
C1125      N1129   1.157       .  T
C1126      N1130   1.157       .  T
C1127      N1132   1.157       .  T
C1128      N1131   1.157       .  T
C1137      C1138   1.409       .  A
C1137      C1142   1.401       .  A
C1137      C1151   1.444       .  S
C1138      C1143   1.484       .  S
C1138      C1139   1.401       .  A
C1139      C1140   1.401       .  A
C1139      H1158   1.084       .  S
C1140      C1141   1.417       .  A
C1140      C1152   1.445       .  S
C1141      C1142   1.406       .  A
C1142      H1157   1.083       .  S
C1143      C1144   1.402       .  A
C1143      C1148   1.409       .  A
C1144      C1145   1.402       .  A
C1144      H1159   1.085       .  S
C1145      C1146   1.416       .  A
C1145      C1149   1.444       .  S
C1146      C1147   1.407       .  A
C1147      C1148   1.400       .  A
C1147      H1160   1.085       .  S
C1148      C1150   1.444       .  S
C1149      N1153   1.157       .  T
C1150      N1154   1.157       .  T
C1151      N1156   1.157       .  T
C1152      N1155   1.157       .  T
C1161      C1162   1.408       .  A
C1161      C1166   1.401       .  A
C1161      C1175   1.444       .  S
C1162      C1167   1.486       .  S
C1162      C1163   1.402       .  A
C1163      C1164   1.404       .  A
C1163      H1182   1.084       .  S
C1164      C1165   1.417       .  A
C1164      C1176   1.444       .  S
C1165      C1166   1.408       .  A
C1166      H1181   1.084       .  S
C1167      C1168   1.404       .  A
C1167      C1172   1.408       .  A
C1168      C1169   1.405       .  A
C1168      H1183   1.084       .  S
C1169      C1170   1.416       .  A
C1169      C1173   1.444       .  S
C1170      C1171   1.407       .  A
C1171      C1172   1.399       .  A
C1171      H1184   1.084       .  S
C1172      C1174   1.444       .  S
C1173      N1177   1.157       .  T
C1174      N1178   1.157       .  T
C1175      N1180   1.157       .  T
C1176      N1179   1.157       .  T
C1185      C1186   1.413       .  A
C1185      C1190   1.401       .  A
C1185      C1199   1.444       .  S
C1186      C1191   1.489       .  S
C1186      C1187   1.404       .  A
C1187      C1188   1.399       .  A
C1187      H1206   1.084       .  S
C1188      C1189   1.414       .  A
C1188      C1200   1.445       .  S
C1189      C1190   1.404       .  A
C1190      H1205   1.084       .  S
C1191      C1192   1.402       .  A
C1191      C1196   1.411       .  A
C1192      C1193   1.400       .  A
C1192      H1207   1.084       .  S
C1193      C1194   1.421       .  A
C1193      C1197   1.445       .  S
C1194      C1195   1.409       .  A
C1195      C1196   1.401       .  A
C1195      H1208   1.084       .  S
C1196      C1198   1.444       .  S
C1197      N1201   1.157       .  T
C1198      N1202   1.157       .  T
C1199      N1204   1.157       .  T
C1200      N1203   1.157       .  T
C1209      C1210   1.409       .  A
C1209      C1214   1.401       .  A
C1209      C1223   1.444       .  S
C1210      C1215   1.489       .  S
C1210      C1211   1.402       .  A
C1211      C1212   1.403       .  A
C1211      H1230   1.084       .  S
C1212      C1213   1.421       .  A
C1212      C1224   1.444       .  S
C1213      C1214   1.409       .  A
C1214      H1229   1.084       .  S
C1215      C1216   1.403       .  A
C1215      C1220   1.411       .  A
C1216      C1217   1.402       .  A
C1216      H1231   1.084       .  S
C1217      C1218   1.416       .  A
C1217      C1221   1.444       .  S
C1218      C1219   1.407       .  A
C1219      C1220   1.401       .  A
C1219      H1232   1.084       .  S
C1220      C1222   1.444       .  S
C1221      N1225   1.157       .  T
C1222      N1226   1.157       .  T
C1223      N1228   1.157       .  T
C1224      N1227   1.157       .  T
C1233      C1234   1.410       .  A
C1233      C1238   1.401       .  A
C1233      C1247   1.444       .  S
C1234      C1239   1.490       .  S
C1234      C1235   1.403       .  A
C1235      C1236   1.403       .  A
C1235      H1254   1.084       .  S
C1236      C1237   1.418       .  A
C1236      C1248   1.444       .  S
C1237      C1238   1.407       .  A
C1238      H1253   1.084       .  S
C1239      C1240   1.404       .  A
C1239      C1244   1.411       .  A
C1240      C1241   1.402       .  A
C1240      H1255   1.084       .  S
C1241      C1242   1.416       .  A
C1241      C1245   1.445       .  S
C1242      C1243   1.407       .  A
C1243      C1244   1.402       .  A
C1243      H1256   1.084       .  S
C1244      C1246   1.444       .  S
C1245      N1249   1.157       .  T
C1246      N1250   1.157       .  T
C1247      N1252   1.157       .  T
C1248      N1251   1.157       .  T
C1257      C1258   1.408       .  A
C1257      C1262   1.400       .  A
C1257      C1271   1.444       .  S
C1258      C1263   1.489       .  S
C1258      C1259   1.402       .  A
C1259      C1260   1.404       .  A
C1259      H1278   1.084       .  S
C1260      C1261   1.422       .  A
C1260      C1272   1.444       .  S
C1261      C1262   1.410       .  A
C1262      H1277   1.083       .  S
C1263      C1264   1.403       .  A
C1263      C1268   1.411       .  A
C1264      C1265   1.401       .  A
C1264      H1279   1.084       .  S
C1265      C1266   1.414       .  A
C1265      C1269   1.445       .  S
C1266      C1267   1.406       .  A
C1267      C1268   1.403       .  A
C1267      H1280   1.084       .  S
C1268      C1270   1.443       .  S
C1269      N1273   1.157       .  T
C1270      N1274   1.157       .  T
C1271      N1276   1.157       .  T
C1272      N1275   1.157       .  T
C1281      C1282   1.406       .  A
C1281      C1286   1.398       .  A
C1281      C1295   1.445       .  S
C1282      C1287   1.477       .  S
C1282      C1283   1.400       .  A
C1283      C1284   1.402       .  A
C1283      H1302   1.085       .  S
C1284      C1285   1.416       .  A
C1284      C1296   1.443       .  S
C1285      C1286   1.407       .  A
C1286      H1301   1.082       .  S
C1287      C1288   1.400       .  A
C1287      C1292   1.409       .  A
C1288      C1289   1.398       .  A
C1288      H1303   1.085       .  S
C1289      C1290   1.412       .  A
C1289      C1293   1.443       .  S
C1290      C1291   1.404       .  A
C1291      C1292   1.401       .  A
C1291      H1304   1.085       .  S
C1292      C1294   1.443       .  S
C1293      N1297   1.157       .  T
C1294      N1298   1.157       .  T
C1295      N1300   1.157       .  T
C1296      N1299   1.157       .  T
C1305      C1306   1.412       .  A
C1305      C1310   1.402       .  A
C1305      C1319   1.444       .  S
C1306      C1311   1.490       .  S
C1306      C1307   1.403       .  A
C1307      C1308   1.401       .  A
C1307      H1326   1.084       .  S
C1308      C1309   1.416       .  A
C1308      C1320   1.445       .  S
C1309      C1310   1.406       .  A
C1310      H1325   1.084       .  S
C1311      C1312   1.403       .  A
C1311      C1316   1.411       .  A
C1312      C1313   1.401       .  A
C1312      H1327   1.084       .  S
C1313      C1314   1.419       .  A
C1313      C1317   1.444       .  S
C1314      C1315   1.409       .  A
C1315      C1316   1.401       .  A
C1315      H1328   1.083       .  S
C1316      C1318   1.444       .  S
C1317      N1321   1.157       .  T
C1318      N1322   1.157       .  T
C1319      N1324   1.157       .  T
C1320      N1323   1.157       .  T
C1329      C1330   1.410       .  A
C1329      C1334   1.399       .  A
C1329      C1343   1.444       .  S
C1330      C1335   1.485       .  S
C1330      C1331   1.403       .  A
C1331      C1332   1.403       .  A
C1331      H1350   1.084       .  S
C1332      C1333   1.416       .  A
C1332      C1344   1.445       .  S
C1333      C1334   1.405       .  A
C1334      H1349   1.084       .  S
C1335      C1336   1.402       .  A
C1335      C1340   1.409       .  A
C1336      C1337   1.401       .  A
C1336      H1351   1.084       .  S
C1337      C1338   1.416       .  A
C1337      C1341   1.444       .  S
C1338      C1339   1.407       .  A
C1339      C1340   1.400       .  A
C1339      H1352   1.084       .  S
C1340      C1342   1.444       .  S
C1341      N1345   1.157       .  T
C1342      N1346   1.157       .  T
C1343      N1348   1.157       .  T
C1344      N1347   1.158       .  T
C1353      C1354   1.409       .  A
C1353      C1358   1.399       .  A
C1353      C1367   1.444       .  S
C1354      C1359   1.488       .  S
C1354      C1355   1.403       .  A
C1355      C1356   1.403       .  A
C1355      H1374   1.084       .  S
C1356      C1357   1.418       .  A
C1356      C1368   1.444       .  S
C1357      C1358   1.409       .  A
C1358      H1373   1.084       .  S
C1359      C1360   1.404       .  A
C1359      C1364   1.411       .  A
C1360      C1361   1.402       .  A
C1360      H1375   1.084       .  S
C1361      C1362   1.416       .  A
C1361      C1365   1.445       .  S
C1362      C1363   1.405       .  A
C1363      C1364   1.399       .  A
C1363      H1376   1.084       .  S
C1364      C1366   1.445       .  S
C1365      N1369   1.158       .  T
C1366      N1370   1.157       .  T
C1367      N1372   1.157       .  T
C1368      N1371   1.157       .  T
C1377      C1378   1.412       .  A
C1377      C1382   1.403       .  A
C1377      C1391   1.444       .  S
C1378      C1383   1.490       .  S
C1378      C1379   1.401       .  A
C1379      C1380   1.400       .  A
C1379      H1398   1.085       .  S
C1380      C1381   1.421       .  A
C1380      C1392   1.445       .  S
C1381      C1382   1.408       .  A
C1382      H1397   1.084       .  S
C1383      C1384   1.402       .  A
C1383      C1388   1.413       .  A
C1384      C1385   1.399       .  A
C1384      H1399   1.084       .  S
C1385      C1386   1.417       .  A
C1385      C1389   1.445       .  S
C1386      C1387   1.407       .  A
C1387      C1388   1.404       .  A
C1387      H1400   1.083       .  S
C1388      C1390   1.444       .  S
C1389      N1393   1.157       .  T
C1390      N1394   1.157       .  T
C1391      N1396   1.157       .  T
C1392      N1395   1.157       .  T
C1401      C1402   1.410       .  A
C1401      C1406   1.402       .  A
C1401      C1415   1.443       .  S
C1402      C1407   1.486   1_565  S
C1402      C1403   1.401       .  A
C1403      C1404   1.399       .  A
C1403      H1422   1.084       .  S
C1404      C1405   1.418       .  A
C1404      C1416   1.445       .  S
C1405      C1406   1.406       .  A
C1406      H1421   1.084       .  S
C1407      C1408   1.401       .  A
C1407      C1412   1.410       .  A
C1408      C1409   1.399       .  A
C1408      H1423   1.084       .  S
C1409      C1410   1.417       .  A
C1409      C1413   1.444       .  S
C1410      C1411   1.408       .  A
C1411      C1412   1.403       .  A
C1411      H1424   1.084       .  S
C1412      C1414   1.444       .  S
C1413      N1417   1.157       .  T
C1414      N1418   1.157       .  T
C1415      N1420   1.157       .  T
C1416      N1419   1.157       .  T
C1425      C1426   1.406       .  A
C1425      C1430   1.400       .  A
C1425      C1439   1.444       .  S
C1426      C1431   1.481       .  S
C1426      C1427   1.401       .  A
C1427      C1428   1.401       .  A
C1427      H1446   1.084       .  S
C1428      C1429   1.418       .  A
C1428      C1440   1.444       .  S
C1429      C1430   1.409       .  A
C1430      H1445   1.084       .  S
C1431      C1432   1.402       .  A
C1431      C1436   1.407       .  A
C1432      C1433   1.401       .  A
C1432      H1447   1.084       .  S
C1433      C1434   1.415       .  A
C1433      C1437   1.445       .  S
C1434      C1435   1.406       .  A
C1435      C1436   1.400       .  A
C1435      H1448   1.084       .  S
C1436      C1438   1.443       .  S
C1437      N1441   1.157       .  T
C1438      N1442   1.157       .  T
C1439      N1444   1.157       .  T
C1440      N1443   1.157       .  T
C1449      C1450   1.410       .  A
C1449      C1454   1.402       .  A
C1449      C1463   1.443       .  S
C1450      C1455   1.484       .  S
C1450      C1451   1.400       .  A
C1451      C1452   1.399       .  A
C1451      H1470   1.084       .  S
C1452      C1453   1.418       .  A
C1452      C1464   1.445       .  S
C1453      C1454   1.405       .  A
C1454      H1469   1.084       .  S
C1455      C1456   1.398       .  A
C1455      C1460   1.409       .  A
C1456      C1457   1.397       .  A
C1456      H1471   1.084       .  S
C1457      C1458   1.420       .  A
C1457      C1461   1.444       .  S
C1458      C1459   1.410       .  A
C1459      C1460   1.405       .  A
C1459      H1472   1.083       .  S
C1460      C1462   1.444       .  S
C1461      N1465   1.157       .  T
C1462      N1466   1.157       .  T
C1463      N1468   1.157       .  T
C1464      N1467   1.157       .  T
C1473      C1474   1.410       .  A
C1473      C1478   1.399       .  A
C1473      C1487   1.444       .  S
C1474      C1479   1.488   1_455  S
C1474      C1475   1.402       .  A
C1475      C1476   1.402       .  A
C1475      H1494   1.084       .  S
C1476      C1477   1.420       .  A
C1476      C1488   1.445       .  S
C1477      C1478   1.407       .  A
C1478      H1493   1.084       .  S
C1479      C1480   1.403       .  A
C1479      C1484   1.410       .  A
C1480      C1481   1.402       .  A
C1480      H1495   1.084       .  S
C1481      C1482   1.417       .  A
C1481      C1485   1.444       .  S
C1482      C1483   1.408       .  A
C1483      C1484   1.399       .  A
C1483      H1496   1.084       .  S
C1484      C1486   1.444       .  S
C1485      N1489   1.157       .  T
C1486      N1490   1.157       .  T
C1487      N1492   1.157       .  T
C1488      N1491   1.157       .  T
C1497      C1498   1.409       .  A
C1497      C1502   1.401       .  A
C1497      C1511   1.444       .  S
C1498      C1503   1.486       .  S
C1498      C1499   1.401       .  A
C1499      C1500   1.403       .  A
C1499      H1518   1.084       .  S
C1500      C1501   1.419       .  A
C1500      C1512   1.444       .  S
C1501      C1502   1.408       .  A
C1502      H1517   1.084       .  S
C1503      C1504   1.402       .  A
C1503      C1508   1.409       .  A
C1504      C1505   1.402       .  A
C1504      H1519   1.084       .  S
C1505      C1506   1.417       .  A
C1505      C1509   1.444       .  S
C1506      C1507   1.408       .  A
C1507      C1508   1.402       .  A
C1507      H1520   1.084       .  S
C1508      C1510   1.444       .  S
C1509      N1513   1.157       .  T
C1510      N1514   1.157       .  T
C1511      N1516   1.157       .  T
C1512      N1515   1.157       .  T
C1521      C1522   1.408       .  A
C1521      C1526   1.400       .  A
C1521      C1535   1.444       .  S
C1522      C1527   1.474       .  S
C1522      C1523   1.398       .  A
C1523      C1524   1.397       .  A
C1523      H1542   1.084       .  S
C1524      C1525   1.415       .  A
C1524      C1536   1.445       .  S
C1525      C1526   1.404       .  A
C1526      H1541   1.084       .  S
C1527      C1528   1.397       .  A
C1527      C1532   1.407       .  A
C1528      C1529   1.396       .  A
C1528      H1543   1.084       .  S
C1529      C1530   1.418       .  A
C1529      C1533   1.445       .  S
C1530      C1531   1.407       .  A
C1531      C1532   1.400       .  A
C1531      H1544   1.084       .  S
C1532      C1534   1.444       .  S
C1533      N1537   1.157       .  T
C1534      N1538   1.157       .  T
C1535      N1540   1.157       .  T
C1536      N1539   1.157       .  T
C1545      C1546   1.410       .  A
C1545      C1550   1.397       .  A
C1545      C1559   1.445       .  S
C1546      C1551   1.488   1_655  S
C1546      C1547   1.405       .  A
C1547      C1548   1.403       .  A
C1547      H1566   1.084       .  S
C1548      C1549   1.415       .  A
C1548      C1560   1.444       .  S
C1549      C1550   1.408       .  A
C1550      H1565   1.084       .  S
C1551      C1552   1.404       .  A
C1551      C1556   1.411       .  A
C1552      C1553   1.401       .  A
C1552      H1567   1.084       .  S
C1553      C1554   1.416       .  A
C1553      C1557   1.445       .  S
C1554      C1555   1.406       .  A
C1555      C1556   1.399       .  A
C1555      H1568   1.084       .  S
C1556      C1558   1.445       .  S
C1557      N1561   1.157       .  T
C1558      N1562   1.157       .  T
C1559      N1564   1.157       .  T
C1560      N1563   1.157       .  T
C1569      C1570   1.410       .  A
C1569      C1574   1.401       .  A
C1569      C1583   1.444       .  S
C1570      C1575   1.486   1_565  S
C1570      C1571   1.403       .  A
C1571      C1572   1.399       .  A
C1571      H1590   1.084       .  S
C1572      C1573   1.415       .  A
C1572      C1584   1.444       .  S
C1573      C1574   1.406       .  A
C1574      H1589   1.084       .  S
C1575      C1576   1.402       .  A
C1575      C1580   1.410       .  A
C1576      C1577   1.399       .  A
C1576      H1591   1.084       .  S
C1577      C1578   1.416       .  A
C1577      C1581   1.445       .  S
C1578      C1579   1.407       .  A
C1579      C1580   1.401       .  A
C1579      H1592   1.084       .  S
C1580      C1582   1.444       .  S
C1581      N1585   1.157       .  T
C1582      N1586   1.157       .  T
C1583      N1588   1.157       .  T
C1584      N1587   1.157       .  T
C1593      C1594   1.410       .  A
C1593      C1598   1.402       .  A
C1593      C1607   1.444       .  S
C1594      C1599   1.486       .  S
C1594      C1595   1.400       .  A
C1595      C1596   1.399       .  A
C1595      H1614   1.084       .  S
C1596      C1597   1.420       .  A
C1596      C1608   1.445       .  S
C1597      C1598   1.408       .  A
C1598      H1613   1.084       .  S
C1599      C1600   1.403       .  A
C1599      C1604   1.411       .  A
C1600      C1601   1.401       .  A
C1600      H1615   1.084       .  S
C1601      C1602   1.417       .  A
C1601      C1605   1.444       .  S
C1602      C1603   1.406       .  A
C1603      C1604   1.399       .  A
C1603      H1616   1.084       .  S
C1604      C1606   1.444       .  S
C1605      N1609   1.157       .  T
C1606      N1610   1.157       .  T
C1607      N1612   1.157       .  T
C1608      N1611   1.157       .  T
C1617      C1618   1.409       .  A
C1617      C1622   1.401       .  A
C1617      C1631   1.444       .  S
C1618      C1623   1.485       .  S
C1618      C1619   1.401       .  A
C1619      C1620   1.400       .  A
C1619      H1638   1.084       .  S
C1620      C1621   1.418       .  A
C1620      C1632   1.444       .  S
C1621      C1622   1.408       .  A
C1622      H1637   1.084       .  S
C1623      C1624   1.403       .  A
C1623      C1628   1.410       .  A
C1624      C1625   1.402       .  A
C1624      H1639   1.084       .  S
C1625      C1626   1.416       .  A
C1625      C1629   1.444       .  S
C1626      C1627   1.406       .  A
C1627      C1628   1.399       .  A
C1627      H1640   1.084       .  S
C1628      C1630   1.444       .  S
C1629      N1633   1.157       .  T
C1630      N1634   1.157       .  T
C1631      N1636   1.157       .  T
C1632      N1635   1.157       .  T
C1641      C1642   1.408       .  A
C1641      C1646   1.403       .  A
C1641      C1655   1.444       .  S
C1642      C1647   1.483       .  S
C1642      C1643   1.399       .  A
C1643      C1644   1.399       .  A
C1643      H1662   1.084       .  S
C1644      C1645   1.418       .  A
C1644      C1656   1.444       .  S
C1645      C1646   1.409       .  A
C1646      H1661   1.084       .  S
C1647      C1648   1.402       .  A
C1647      C1652   1.410       .  A
C1648      C1649   1.403       .  A
C1648      H1663   1.084       .  S
C1649      C1650   1.415       .  A
C1649      C1653   1.445       .  S
C1650      C1651   1.402       .  A
C1651      C1652   1.400       .  A
C1651      H1664   1.084       .  S
C1652      C1654   1.444       .  S
C1653      N1657   1.157       .  T
C1654      N1658   1.157       .  T
C1655      N1660   1.157       .  T
C1656      N1659   1.157       .  T
C1665      C1666   1.411       .  A
C1665      C1670   1.399       .  A
C1665      C1679   1.445       .  S
C1666      C1671   1.488   1_554  S
C1666      C1667   1.404       .  A
C1667      C1668   1.404       .  A
C1667      H1686   1.084       .  S
C1668      C1669   1.415       .  A
C1668      C1680   1.444       .  S
C1669      C1670   1.405       .  A
C1670      H1685   1.084       .  S
C1671      C1672   1.402       .  A
C1671      C1676   1.409       .  A
C1672      C1673   1.401       .  A
C1672      H1687   1.084       .  S
C1673      C1674   1.420       .  A
C1673      C1677   1.445       .  S
C1674      C1675   1.409       .  A
C1675      C1676   1.402       .  A
C1675      H1688   1.083       .  S
C1676      C1678   1.444       .  S
C1677      N1681   1.158       .  T
C1678      N1682   1.157       .  T
C1679      N1684   1.157       .  T
C1680      N1683   1.157       .  T
C1689      C1690   1.413       .  A
C1689      C1694   1.403       .  A
C1689      C1703   1.443       .  S
C1690      C1695   1.493   1_556  S
C1690      C1691   1.404       .  A
C1691      C1692   1.400       .  A
C1691      H1710   1.084       .  S
C1692      C1693   1.416       .  A
C1692      C1704   1.445       .  S
C1693      C1694   1.405       .  A
C1694      H1709   1.084       .  S
C1695      C1696   1.402       .  A
C1695      C1700   1.412       .  A
C1696      C1697   1.401       .  A
C1696      H1711   1.084       .  S
C1697      C1698   1.422       .  A
C1697      C1701   1.444       .  S
C1698      C1699   1.409       .  A
C1699      C1700   1.403       .  A
C1699      H1712   1.084       .  S
C1700      C1702   1.444       .  S
C1701      N1705   1.157       .  T
C1702      N1706   1.157       .  T
C1703      N1708   1.157       .  T
C1704      N1707   1.157       .  T
C1713      C1714   1.409       .  A
C1713      C1718   1.397       .  A
C1713      C1727   1.444       .  S
C1714      C1719   1.482       .  S
C1714      C1715   1.403       .  A
C1715      C1716   1.399       .  A
C1715      H1734   1.084       .  S
C1716      C1717   1.415       .  A
C1716      C1728   1.444       .  S
C1717      C1718   1.406       .  A
C1718      H1733   1.084       .  S
C1719      C1720   1.401       .  A
C1719      C1724   1.408       .  A
C1720      C1721   1.400       .  A
C1720      H1735   1.084       .  S
C1721      C1722   1.419       .  A
C1721      C1725   1.444       .  S
C1722      C1723   1.409       .  A
C1723      C1724   1.397       .  A
C1723      H1736   1.084       .  S
C1724      C1726   1.445       .  S
C1725      N1729   1.157       .  T
C1726      N1730   1.157       .  T
C1727      N1732   1.157       .  T
C1728      N1731   1.157       .  T
C1737      C1738   1.409       .  A
C1737      C1742   1.401       .  A
C1737      C1751   1.444       .  S
C1738      C1743   1.483       .  S
C1738      C1739   1.401       .  A
C1739      C1740   1.399       .  A
C1739      H1758   1.084       .  S
C1740      C1741   1.418       .  A
C1740      C1752   1.445       .  S
C1741      C1742   1.407       .  A
C1742      H1757   1.084       .  S
C1743      C1744   1.400       .  A
C1743      C1748   1.409       .  A
C1744      C1745   1.398       .  A
C1744      H1759   1.084       .  S
C1745      C1746   1.419       .  A
C1745      C1749   1.445       .  S
C1746      C1747   1.408       .  A
C1747      C1748   1.401       .  A
C1747      H1760   1.084       .  S
C1748      C1750   1.444       .  S
C1749      N1753   1.157       .  T
C1750      N1754   1.157       .  T
C1751      N1756   1.157       .  T
C1752      N1755   1.157       .  T
C1761      C1762   1.411       .  A
C1761      C1766   1.400       .  A
C1761      C1775   1.444       .  S
C1762      C1767   1.487       .  S
C1762      C1763   1.402       .  A
C1763      C1764   1.400       .  A
C1763      H1782   1.084       .  S
C1764      C1765   1.417       .  A
C1764      C1776   1.445       .  S
C1765      C1766   1.406       .  A
C1766      H1781   1.084       .  S
C1767      C1768   1.402       .  A
C1767      C1772   1.410       .  A
C1768      C1769   1.401       .  A
C1768      H1783   1.084       .  S
C1769      C1770   1.419       .  A
C1769      C1773   1.444       .  S
C1770      C1771   1.409       .  A
C1771      C1772   1.400       .  A
C1771      H1784   1.084       .  S
C1772      C1774   1.445       .  S
C1773      N1777   1.157       .  T
C1774      N1778   1.157       .  T
C1775      N1780   1.157       .  T
C1776      N1779   1.157       .  T
C1785      C1786   1.408       .  A
C1785      C1790   1.402       .  A
C1785      C1799   1.444       .  S
C1786      C1791   1.483       .  S
C1786      C1787   1.400       .  A
C1787      C1788   1.400       .  A
C1787      H1806   1.084       .  S
C1788      C1789   1.418       .  A
C1788      C1800   1.445       .  S
C1789      C1790   1.409       .  A
C1790      H1805   1.084       .  S
C1791      C1792   1.402       .  A
C1791      C1796   1.408       .  A
C1792      C1793   1.402       .  A
C1792      H1807   1.084       .  S
C1793      C1794   1.416       .  A
C1793      C1797   1.445       .  S
C1794      C1795   1.406       .  A
C1795      C1796   1.401       .  A
C1795      H1808   1.084       .  S
C1796      C1798   1.444       .  S
C1797      N1801   1.157       .  T
C1798      N1802   1.157       .  T
C1799      N1804   1.157       .  T
C1800      N1803   1.157       .  T
C1809      C1810   1.409       .  A
C1809      C1814   1.400       .  A
C1809      C1823   1.444       .  S
C1810      C1815   1.488       .  S
C1810      C1811   1.402       .  A
C1811      C1812   1.403       .  A
C1811      H1830   1.084       .  S
C1812      C1813   1.419       .  A
C1812      C1824   1.444       .  S
C1813      C1814   1.409       .  A
C1814      H1829   1.084       .  S
C1815      C1816   1.404       .  A
C1815      C1820   1.411       .  A
C1816      C1817   1.403       .  A
C1816      H1831   1.084       .  S
C1817      C1818   1.413       .  A
C1817      C1821   1.444       .  S
C1818      C1819   1.405       .  A
C1819      C1820   1.400       .  A
C1819      H1832   1.084       .  S
C1820      C1822   1.444       .  S
C1821      N1825   1.157       .  T
C1822      N1826   1.157       .  T
C1823      N1828   1.157       .  T
C1824      N1827   1.157       .  T
C1833      C1834   1.411       .  A
C1833      C1838   1.398       .  A
C1833      C1847   1.445       .  S
C1834      C1839   1.483       .  S
C1834      C1835   1.402       .  A
C1835      C1836   1.397       .  A
C1835      H1854   1.084       .  S
C1836      C1837   1.415       .  A
C1836      C1848   1.444       .  S
C1837      C1838   1.406       .  A
C1838      H1853   1.084       .  S
C1839      C1840   1.401       .  A
C1839      C1844   1.411       .  A
C1840      C1841   1.398       .  A
C1840      H1855   1.084       .  S
C1841      C1842   1.417       .  A
C1841      C1845   1.444       .  S
C1842      C1843   1.406       .  A
C1843      C1844   1.397       .  A
C1843      H1856   1.084       .  S
C1844      C1846   1.445       .  S
C1845      N1849   1.157       .  T
C1846      N1850   1.157       .  T
C1847      N1852   1.157       .  T
C1848      N1851   1.157       .  T
C1857      C1858   1.409       .  A
C1857      C1862   1.402       .  A
C1857      C1871   1.444       .  S
C1858      C1863   1.488       .  S
C1858      C1859   1.402       .  A
C1859      C1860   1.402       .  A
C1859      H1878   1.084       .  S
C1860      C1861   1.418       .  A
C1860      C1872   1.443       .  S
C1861      C1862   1.407       .  A
C1862      H1877   1.084       .  S
C1863      C1864   1.403       .  A
C1863      C1868   1.410       .  A
C1864      C1865   1.401       .  A
C1864      H1879   1.084       .  S
C1865      C1866   1.415       .  A
C1865      C1869   1.444       .  S
C1866      C1867   1.407       .  A
C1867      C1868   1.402       .  A
C1867      H1880   1.084       .  S
C1868      C1870   1.444       .  S
C1869      N1873   1.157       .  T
C1870      N1874   1.157       .  T
C1871      N1876   1.157       .  T
C1872      N1875   1.157       .  T
C1881      C1882   1.410       .  A
C1881      C1886   1.398       .  A
C1881      C1895   1.444       .  S
C1882      C1887   1.483       .  S
C1882      C1883   1.402       .  A
C1883      C1884   1.400       .  A
C1883      H1902   1.084       .  S
C1884      C1885   1.417       .  A
C1884      C1896   1.445       .  S
C1885      C1886   1.405       .  A
C1886      H1901   1.084       .  S
C1887      C1888   1.402       .  A
C1887      C1892   1.410       .  A
C1888      C1889   1.400       .  A
C1888      H1903   1.084       .  S
C1889      C1890   1.415       .  A
C1889      C1893   1.444       .  S
C1890      C1891   1.407       .  A
C1891      C1892   1.399       .  A
C1891      H1904   1.084       .  S
C1892      C1894   1.444       .  S
C1893      N1897   1.157       .  T
C1894      N1898   1.157       .  T
C1895      N1900   1.157       .  T
C1896      N1899   1.157       .  T
C1905      C1906   1.410       .  A
C1905      C1910   1.399       .  A
C1905      C1919   1.445       .  S
C1906      C1911   1.488       .  S
C1906      C1907   1.404       .  A
C1907      C1908   1.403       .  A
C1907      H1926   1.084       .  S
C1908      C1909   1.417       .  A
C1908      C1920   1.444       .  S
C1909      C1910   1.408       .  A
C1910      H1925   1.084       .  S
C1911      C1912   1.404       .  A
C1911      C1916   1.411       .  A
C1912      C1913   1.402       .  A
C1912      H1927   1.084       .  S
C1913      C1914   1.416       .  A
C1913      C1917   1.445       .  S
C1914      C1915   1.406       .  A
C1915      C1916   1.399       .  A
C1915      H1928   1.084       .  S
C1916      C1918   1.445       .  S
C1917      N1921   1.157       .  T
C1918      N1922   1.157       .  T
C1919      N1924   1.157       .  T
C1920      N1923   1.157       .  T
C1929      C1930   1.410       .  A
C1929      C1934   1.400       .  A
C1929      C1943   1.445       .  S
C1930      C1935   1.484       .  S
C1930      C1931   1.402       .  A
C1931      C1932   1.401       .  A
C1931      H1950   1.084       .  S
C1932      C1933   1.414       .  A
C1932      C1944   1.444       .  S
C1933      C1934   1.406       .  A
C1934      H1949   1.084       .  S
C1935      C1936   1.402       .  A
C1935      C1940   1.409       .  A
C1936      C1937   1.401       .  A
C1936      H1951   1.084       .  S
C1937      C1938   1.417       .  A
C1937      C1941   1.445       .  S
C1938      C1939   1.407       .  A
C1939      C1940   1.400       .  A
C1939      H1952   1.084       .  S
C1940      C1942   1.444       .  S
C1941      N1945   1.157       .  T
C1942      N1946   1.157       .  T
C1943      N1948   1.157       .  T
C1944      N1947   1.157       .  T
C1953      C1954   1.408       .  A
C1953      C1958   1.400       .  A
C1953      C1967   1.445       .  S
C1954      C1959   1.481       .  S
C1954      C1955   1.401       .  A
C1955      C1956   1.402       .  A
C1955      H1974   1.084       .  S
C1956      C1957   1.416       .  A
C1956      C1968   1.444       .  S
C1957      C1958   1.406       .  A
C1958      H1973   1.084       .  S
C1959      C1960   1.402       .  A
C1959      C1964   1.407       .  A
C1960      C1961   1.402       .  A
C1960      H1975   1.084       .  S
C1961      C1962   1.415       .  A
C1961      C1965   1.445       .  S
C1962      C1963   1.407       .  A
C1963      C1964   1.399       .  A
C1963      H1976   1.084       .  S
C1964      C1966   1.444       .  S
C1965      N1969   1.157       .  T
C1966      N1970   1.157       .  T
C1967      N1972   1.157       .  T
C1968      N1971   1.157       .  T
C1977      C1978   1.408       .  A
C1977      C1982   1.401       .  A
C1977      C1991   1.444       .  S
C1978      C1983   1.482   1_556  S
C1978      C1979   1.400       .  A
C1979      C1980   1.400       .  A
C1979      H1998   1.084       .  S
C1980      C1981   1.418       .  A
C1980      C1992   1.445       .  S
C1981      C1982   1.408       .  A
C1982      H1997   1.084       .  S
C1983      C1984   1.403       .  A
C1983      C1988   1.410       .  A
C1984      C1985   1.403       .  A
C1984      H1999   1.084       .  S
C1985      C1986   1.410       .  A
C1985      C1989   1.443       .  S
C1986      C1987   1.404       .  A
C1987      C1988   1.399       .  A
C1987      H2000   1.084       .  S
C1988      C1990   1.444       .  S
C1989      N1993   1.157       .  T
C1990      N1994   1.157   1_554  T
C1991      N1996   1.157       .  T
C1992      N1995   1.157       .  T
C2001      C2002   1.410       .  A
C2001      C2006   1.399       .  A
C2001      C2015   1.445       .  S
C2002      C2007   1.484       .  S
C2002      C2003   1.401       .  A
C2003      C2004   1.399       .  A
C2003      H2022   1.084       .  S
C2004      C2005   1.419       .  A
C2004      C2016   1.444       .  S
C2005      C2006   1.409       .  A
C2006      H2021   1.084       .  S
C2007      C2008   1.402       .  A
C2007      C2012   1.411       .  A
C2008      C2009   1.399       .  A
C2008      H2023   1.084       .  S
C2009      C2010   1.415       .  A
C2009      C2013   1.444       .  S
C2010      C2011   1.406       .  A
C2011      C2012   1.399       .  A
C2011      H2024   1.084       .  S
C2012      C2014   1.445       .  S
C2013      N2017   1.157       .  T
C2014      N2018   1.157       .  T
C2015      N2020   1.157       .  T
C2016      N2019   1.157       .  T
C2025      C2026   1.408       .  A
C2025      C2030   1.400       .  A
C2025      C2039   1.444       .  S
C2026      C2031   1.483   1_565  S
C2026      C2027   1.402       .  A
C2027      C2028   1.403       .  A
C2027      H2046   1.085       .  S
C2028      C2029   1.416       .  A
C2028      C2040   1.444       .  S
C2029      C2030   1.407       .  A
C2030      H2045   1.085       .  S
C2031      C2032   1.402       .  A
C2031      C2036   1.408       .  A
C2032      C2033   1.403       .  A
C2032      H2047   1.084       .  S
C2033      C2034   1.417       .  A
C2033      C2037   1.445       .  S
C2034      C2035   1.406       .  A
C2035      C2036   1.399       .  A
C2035      H2048   1.084       .  S
C2036      C2038   1.444       .  S
C2037      N2041   1.158       .  T
C2038      N2042   1.157       .  T
C2039      N2044   1.157   1_565  T
C2040      N2043   1.157       .  T
C2049      C2050   1.410       .  A
C2049      C2054   1.397       .  A
C2049      C2063   1.444       .  S
C2050      C2055   1.483   1_556  S
C2050      C2051   1.403       .  A
C2051      C2052   1.402       .  A
C2051      H2070   1.084       .  S
C2052      C2053   1.414       .  A
C2052      C2064   1.444       .  S
C2053      C2054   1.405       .  A
C2054      H2069   1.084       .  S
C2055      C2056   1.401       .  A
C2055      C2060   1.409       .  A
C2056      C2057   1.401       .  A
C2056      H2071   1.084       .  S
C2057      C2058   1.419       .  A
C2057      C2061   1.445       .  S
C2058      C2059   1.408       .  A
C2059      C2060   1.399       .  A
C2059      H2072   1.083       .  S
C2060      C2062   1.445       .  S
C2061      N2065   1.157       .  T
C2062      N2066   1.157   1_554  T
C2063      N2068   1.157       .  T
C2064      N2067   1.157       .  T
C2073      C2074   1.410       .  A
C2073      C2078   1.402       .  A
C2073      C2087   1.444       .  S
C2074      C2079   1.481       .  S
C2074      C2075   1.400       .  A
C2075      C2076   1.399       .  A
C2075      H2094   1.084       .  S
C2076      C2077   1.414       .  A
C2076      C2088   1.444       .  S
C2077      C2078   1.406       .  A
C2078      H2093   1.084       .  S
C2079      C2080   1.403       .  A
C2079      C2084   1.409       .  A
C2080      C2081   1.401       .  A
C2080      H2095   1.084       .  S
C2081      C2082   1.412       .  A
C2081      C2085   1.444       .  S
C2082      C2083   1.405       .  A
C2083      C2084   1.399       .  A
C2083      H2096   1.084       .  S
C2084      C2086   1.444       .  S
C2085      N2089   1.157       .  T
C2086      N2090   1.157       .  T
C2087      N2092   1.157       .  T
C2088      N2091   1.157       .  T
C2097      C2098   1.412       .  A
C2097      C2102   1.404       .  A
C2097      C2111   1.444       .  S
C2098      C2103   1.492       .  S
C2098      C2099   1.403       .  A
C2099      C2100   1.400       .  A
C2099      H2118   1.084       .  S
C2100      C2101   1.416       .  A
C2100      C2112   1.445       .  S
C2101      C2102   1.408       .  A
C2102      H2117   1.084       .  S
C2103      C2104   1.402       .  A
C2103      C2108   1.411       .  A
C2104      C2105   1.402       .  A
C2104      H2119   1.084       .  S
C2105      C2106   1.421       .  A
C2105      C2109   1.445       .  S
C2106      C2107   1.409       .  A
C2107      C2108   1.401       .  A
C2107      H2120   1.084       .  S
C2108      C2110   1.444       .  S
C2109      N2113   1.157       .  T
C2110      N2114   1.157       .  T
C2111      N2116   1.157       .  T
C2112      N2115   1.157       .  T
C2121      C2122   1.410       .  A
C2121      C2126   1.402       .  A
C2121      C2135   1.444       .  S
C2122      C2127   1.493       .  S
C2122      C2123   1.403       .  A
C2123      C2124   1.404       .  A
C2123      H2142   1.084       .  S
C2124      C2125   1.419       .  A
C2124      C2136   1.443       .  S
C2125      C2126   1.410       .  A
C2126      H2141   1.084       .  S
C2127      C2128   1.405       .  A
C2127      C2132   1.411       .  A
C2128      C2129   1.406       .  A
C2128      H2143   1.084       .  S
C2129      C2130   1.417       .  A
C2129      C2133   1.444       .  S
C2130      C2131   1.407       .  A
C2131      C2132   1.401       .  A
C2131      H2144   1.084       .  S
C2132      C2134   1.444       .  S
C2133      N2137   1.157       .  T
C2134      N2138   1.157       .  T
C2135      N2140   1.157       .  T
C2136      N2139   1.157       .  T
C2145      C2146   1.410       .  A
C2145      C2150   1.401       .  A
C2145      C2159   1.444       .  S
C2146      C2151   1.485   1_565  S
C2146      C2147   1.401       .  A
C2147      C2148   1.399       .  A
C2147      H2166   1.087       .  S
C2148      C2149   1.417       .  A
C2148      C2160   1.444       .  S
C2149      C2150   1.407       .  A
C2150      H2165   1.085       .  S
C2151      C2152   1.403       .  A
C2151      C2156   1.412       .  A
C2152      C2153   1.401       .  A
C2152      H2167   1.084       .  S
C2153      C2154   1.415       .  A
C2153      C2157   1.445       .  S
C2154      C2155   1.405       .  A
C2155      C2156   1.399       .  A
C2155      H2168   1.084       .  S
C2156      C2158   1.444       .  S
C2157      N2161   1.157       .  T
C2158      N2162   1.157       .  T
C2159      N2164   1.157       .  T
C2160      N2163   1.157       .  T
C2169      C2170   1.408       .  A
C2169      C2174   1.401       .  A
C2169      C2183   1.444       .  S
C2170      C2175   1.482       .  S
C2170      C2171   1.400       .  A
C2171      C2172   1.401       .  A
C2171      H2190   1.084       .  S
C2172      C2173   1.418       .  A
C2172      C2184   1.445       .  S
C2173      C2174   1.408       .  A
C2174      H2189   1.084       .  S
C2175      C2176   1.401       .  A
C2175      C2180   1.408       .  A
C2176      C2177   1.401       .  A
C2176      H2191   1.084       .  S
C2177      C2178   1.416       .  A
C2177      C2181   1.445       .  S
C2178      C2179   1.406       .  A
C2179      C2180   1.401       .  A
C2179      H2192   1.084       .  S
C2180      C2182   1.444       .  S
C2181      N2185   1.157       .  T
C2182      N2186   1.157       .  T
C2183      N2188   1.157       .  T
C2184      N2187   1.157       .  T
C2193      C2194   1.411       .  A
C2193      C2198   1.402       .  A
C2193      C2207   1.444       .  S
C2194      C2199   1.487       .  S
C2194      C2195   1.402       .  A
C2195      C2196   1.401       .  A
C2195      H2214   1.084       .  S
C2196      C2197   1.415       .  A
C2196      C2208   1.444       .  S
C2197      C2198   1.407       .  A
C2198      H2213   1.084       .  S
C2199      C2200   1.401       .  A
C2199      C2204   1.410       .  A
C2200      C2201   1.401       .  A
C2200      H2215   1.084       .  S
C2201      C2202   1.418       .  A
C2201      C2205   1.444       .  S
C2202      C2203   1.409       .  A
C2203      C2204   1.402       .  A
C2203      H2216   1.084       .  S
C2204      C2206   1.445       .  S
C2205      N2209   1.157       .  T
C2206      N2210   1.157       .  T
C2207      N2212   1.157       .  T
C2208      N2211   1.157       .  T
C2217      C2218   1.408       .  A
C2217      C2222   1.401       .  A
C2217      C2231   1.444       .  S
C2218      C2223   1.482       .  S
C2218      C2219   1.400       .  A
C2219      C2220   1.400       .  A
C2219      H2238   1.084       .  S
C2220      C2221   1.419       .  A
C2220      C2232   1.444       .  S
C2221      C2222   1.409       .  A
C2222      H2237   1.083       .  S
C2223      C2224   1.401       .  A
C2223      C2228   1.409       .  A
C2224      C2225   1.401       .  A
C2224      H2239   1.084       .  S
C2225      C2226   1.414       .  A
C2225      C2229   1.444       .  S
C2226      C2227   1.406       .  A
C2227      C2228   1.400       .  A
C2227      H2240   1.084       .  S
C2228      C2230   1.444       .  S
C2229      N2233   1.157       .  T
C2230      N2234   1.157       .  T
C2231      N2236   1.157       .  T
C2232      N2235   1.157       .  T
C2241      C2242   1.408       .  A
C2241      C2246   1.402       .  A
C2241      C2255   1.443       .  S
C2242      C2247   1.485       .  S
C2242      C2243   1.401       .  A
C2243      C2244   1.402       .  A
C2243      H2262   1.084       .  S
C2244      C2245   1.419       .  A
C2244      C2256   1.445       .  S
C2245      C2246   1.408       .  A
C2246      H2261   1.084       .  S
C2247      C2248   1.401       .  A
C2247      C2252   1.409       .  A
C2248      C2249   1.400       .  A
C2248      H2263   1.084       .  S
C2249      C2250   1.417       .  A
C2249      C2253   1.445       .  S
C2250      C2251   1.407       .  A
C2251      C2252   1.403       .  A
C2251      H2264   1.084       .  S
C2252      C2254   1.443       .  S
C2253      N2257   1.157       .  T
C2254      N2258   1.157       .  T
C2255      N2260   1.157       .  T
C2256      N2259   1.157       .  T
C2265      C2266   1.411       .  A
C2265      C2270   1.401       .  A
C2265      C2279   1.444       .  S
C2266      C2271   1.489       .  S
C2266      C2267   1.403       .  A
C2267      C2268   1.400       .  A
C2267      H2286   1.084       .  S
C2268      C2269   1.417       .  A
C2268      C2280   1.445       .  S
C2269      C2270   1.407       .  A
C2270      H2285   1.084       .  S
C2271      C2272   1.403       .  A
C2271      C2276   1.410       .  A
C2272      C2273   1.400       .  A
C2272      H2287   1.084       .  S
C2273      C2274   1.417       .  A
C2273      C2277   1.444       .  S
C2274      C2275   1.409       .  A
C2275      C2276   1.400       .  A
C2275      H2288   1.084       .  S
C2276      C2278   1.444       .  S
C2277      N2281   1.157       .  T
C2278      N2282   1.157       .  T
C2279      N2284   1.157       .  T
C2280      N2283   1.157       .  T
C2289      C2290   1.411       .  A
C2289      C2294   1.398       .  A
C2289      C2303   1.445       .  S
C2290      C2295   1.486       .  S
C2290      C2291   1.404       .  A
C2291      C2292   1.403       .  A
C2291      H2310   1.084       .  S
C2292      C2293   1.414       .  A
C2292      C2304   1.444       .  S
C2293      C2294   1.405       .  A
C2294      H2309   1.085       .  S
C2295      C2296   1.402       .  A
C2295      C2300   1.409       .  A
C2296      C2297   1.401       .  A
C2296      H2311   1.084       .  S
C2297      C2298   1.418       .  A
C2297      C2301   1.444       .  S
C2298      C2299   1.409       .  A
C2299      C2300   1.401       .  A
C2299      H2312   1.083       .  S
C2300      C2302   1.444       .  S
C2301      N2305   1.157       .  T
C2302      N2306   1.157       .  T
C2303      N2308   1.157       .  T
C2304      N2307   1.157       .  T
C2313      C2314   1.409       .  A
C2313      C2318   1.397       .  A
C2313      C2327   1.445       .  S
C2314      C2319   1.484   1_556  S
C2314      C2315   1.403       .  A
C2315      C2316   1.400       .  A
C2315      H2334   1.084       .  S
C2316      C2317   1.418       .  A
C2316      C2328   1.445       .  S
C2317      C2318   1.408       .  A
C2318      H2333   1.084       .  S
C2319      C2320   1.405       .  A
C2319      C2324   1.411       .  A
C2320      C2321   1.401       .  A
C2320      H2335   1.084       .  S
C2321      C2322   1.411       .  A
C2321      C2325   1.444       .  S
C2322      C2323   1.403       .  A
C2323      C2324   1.397       .  A
C2323      H2336   1.084       .  S
C2324      C2326   1.445       .  S
C2325      N2329   1.157       .  T
C2326      N2330   1.157   1_554  T
C2327      N2332   1.157       .  T
C2328      N2331   1.158       .  T
C2337      C2338   1.410       .  A
C2337      C2342   1.399       .  A
C2337      C2351   1.445       .  S
C2338      C2343   1.481       .  S
C2338      C2339   1.401       .  A
C2339      C2340   1.398       .  A
C2339      H2358   1.084       .  S
C2340      C2341   1.415       .  A
C2340      C2352   1.444       .  S
C2341      C2342   1.406       .  A
C2342      H2357   1.084       .  S
C2343      C2344   1.399       .  A
C2343      C2348   1.409       .  A
C2344      C2345   1.399       .  A
C2344      H2359   1.084       .  S
C2345      C2346   1.420       .  A
C2345      C2349   1.445       .  S
C2346      C2347   1.407       .  A
C2347      C2348   1.399       .  A
C2347      H2360   1.084       .  S
C2348      C2350   1.444       .  S
C2349      N2353   1.157       .  T
C2350      N2354   1.157       .  T
C2351      N2356   1.157       .  T
C2352      N2355   1.157       .  T
C2361      C2362   1.410       .  A
C2361      C2366   1.400       .  A
C2361      C2375   1.444       .  S
C2362      C2367   1.484   1_655  S
C2362      C2363   1.402       .  A
C2363      C2364   1.397       .  A
C2363      H2382   1.084       .  S
C2364      C2365   1.416       .  A
C2364      C2376   1.445       .  S
C2365      C2366   1.407       .  A
C2366      H2381   1.084       .  S
C2367      C2368   1.401       .  A
C2367      C2372   1.410       .  A
C2368      C2369   1.396       .  A
C2368      H2383   1.084       .  S
C2369      C2370   1.417       .  A
C2369      C2373   1.445       .  S
C2370      C2371   1.407       .  A
C2371      C2372   1.401       .  A
C2371      H2384   1.084       .  S
C2372      C2374   1.444       .  S
C2373      N2377   1.157       .  T
C2374      N2378   1.157       .  T
C2375      N2380   1.157       .  T
C2376      N2379   1.157       .  T
C2385      C2386   1.410       .  A
C2385      C2390   1.399       .  A
C2385      C2399   1.444       .  S
C2386      C2391   1.488   1_556  S
C2386      C2387   1.403       .  A
C2387      C2388   1.402       .  A
C2387      H2406   1.084       .  S
C2388      C2389   1.416       .  A
C2388      C2400   1.443       .  S
C2389      C2390   1.408       .  A
C2390      H2405   1.084       .  S
C2391      C2392   1.403       .  A
C2391      C2396   1.411       .  A
C2392      C2393   1.403       .  A
C2392      H2407   1.084       .  S
C2393      C2394   1.417       .  A
C2393      C2397   1.444       .  S
C2394      C2395   1.407       .  A
C2395      C2396   1.400       .  A
C2395      H2408   1.084       .  S
C2396      C2398   1.445       .  S
C2397      N2401   1.157       .  T
C2398      N2402   1.157   1_554  T
C2399      N2404   1.157       .  T
C2400      N2403   1.157       .  T
C2409      C2410   1.410       .  A
C2409      C2414   1.400       .  A
C2409      C2423   1.444       .  S
C2410      C2415   1.487       .  S
C2410      C2411   1.403       .  A
C2411      C2412   1.399       .  A
C2411      H2430   1.084       .  S
C2412      C2413   1.417       .  A
C2412      C2424   1.444       .  S
C2413      C2414   1.408       .  A
C2414      H2429   1.084       .  S
C2415      C2416   1.402       .  A
C2415      C2420   1.411       .  A
C2416      C2417   1.400       .  A
C2416      H2431   1.084       .  S
C2417      C2418   1.418       .  A
C2417      C2421   1.445       .  S
C2418      C2419   1.406       .  A
C2419      C2420   1.400       .  A
C2419      H2432   1.084       .  S
C2420      C2422   1.444       .  S
C2421      N2425   1.157       .  T
C2422      N2426   1.157       .  T
C2423      N2428   1.157       .  T
C2424      N2427   1.157       .  T
C2433      C2434   1.411       .  A
C2433      C2438   1.398       .  A
C2433      C2447   1.445       .  S
C2434      C2439   1.483       .  S
C2434      C2435   1.402       .  A
C2435      C2436   1.398       .  A
C2435      H2454   1.084       .  S
C2436      C2437   1.414       .  A
C2436      C2448   1.445       .  S
C2437      C2438   1.405       .  A
C2438      H2453   1.084       .  S
C2439      C2440   1.402       .  A
C2439      C2444   1.410       .  A
C2440      C2441   1.399       .  A
C2440      H2455   1.084       .  S
C2441      C2442   1.417       .  A
C2441      C2445   1.444       .  S
C2442      C2443   1.406       .  A
C2443      C2444   1.397       .  A
C2443      H2456   1.084       .  S
C2444      C2446   1.445       .  S
C2445      N2449   1.157       .  T
C2446      N2450   1.157       .  T
C2447      N2452   1.157       .  T
C2448      N2451   1.157       .  T
C2457      C2458   1.409       .  A
C2457      C2462   1.397       .  A
C2457      C2471   1.445       .  S
C2458      C2463   1.485       .  S
C2458      C2459   1.403       .  A
C2459      C2460   1.401       .  A
C2459      H2478   1.084       .  S
C2460      C2461   1.415       .  A
C2460      C2472   1.443       .  S
C2461      C2462   1.407       .  A
C2462      H2477   1.084       .  S
C2463      C2464   1.403       .  A
C2463      C2468   1.410       .  A
C2464      C2465   1.401       .  A
C2464      H2479   1.084       .  S
C2465      C2466   1.416       .  A
C2465      C2469   1.445       .  S
C2466      C2467   1.406       .  A
C2467      C2468   1.398       .  A
C2467      H2480   1.084       .  S
C2468      C2470   1.445       .  S
C2469      N2473   1.157       .  T
C2470      N2474   1.157       .  T
C2471      N2476   1.157       .  T
C2472      N2475   1.157       .  T
C2481      C2482   1.411       .  A
C2481      C2486   1.402       .  A
C2481      C2495   1.444       .  S
C2482      C2487   1.488   1_455  S
C2482      C2483   1.403       .  A
C2483      C2484   1.399       .  A
C2483      H2502   1.085       .  S
C2484      C2485   1.413       .  A
C2484      C2496   1.444       .  S
C2485      C2486   1.406       .  A
C2486      H2501   1.084       .  S
C2487      C2488   1.403       .  A
C2487      C2492   1.412       .  A
C2488      C2489   1.400       .  A
C2488      H2503   1.084       .  S
C2489      C2490   1.416       .  A
C2489      C2493   1.445       .  S
C2490      C2491   1.407       .  A
C2491      C2492   1.401       .  A
C2491      H2504   1.084       .  S
C2492      C2494   1.444       .  S
C2493      N2497   1.157       .  T
C2494      N2498   1.157       .  T
C2495      N2500   1.157       .  T
C2496      N2499   1.157       .  T
C2505      C2506   1.407       .  A
C2505      C2510   1.402       .  A
C2505      C2519   1.444       .  S
C2506      C2511   1.484       .  S
C2506      C2507   1.401       .  A
C2507      C2508   1.401       .  A
C2507      H2526   1.084       .  S
C2508      C2509   1.419       .  A
C2508      C2520   1.445       .  S
C2509      C2510   1.409       .  A
C2510      H2525   1.084       .  S
C2511      C2512   1.402       .  A
C2511      C2516   1.407       .  A
C2512      C2513   1.403       .  A
C2512      H2527   1.084       .  S
C2513      C2514   1.418       .  A
C2513      C2517   1.445       .  S
C2514      C2515   1.408       .  A
C2515      C2516   1.400       .  A
C2515      H2528   1.084       .  S
C2516      C2518   1.444       .  S
C2517      N2521   1.158       .  T
C2518      N2522   1.157       .  T
C2519      N2524   1.157       .  T
C2520      N2523   1.158       .  T
C2529      C2530   1.410       .  A
C2529      C2534   1.398       .  A
C2529      C2543   1.445       .  S
C2530      C2535   1.486       .  S
C2530      C2531   1.401       .  A
C2531      C2532   1.399       .  A
C2531      H2550   1.084       .  S
C2532      C2533   1.420       .  A
C2532      C2544   1.445       .  S
C2533      C2534   1.409       .  A
C2534      H2549   1.084       .  S
C2535      C2536   1.403       .  A
C2535      C2540   1.412       .  A
C2536      C2537   1.400       .  A
C2536      H2551   1.084       .  S
C2537      C2538   1.415       .  A
C2537      C2541   1.444       .  S
C2538      C2539   1.405       .  A
C2539      C2540   1.399       .  A
C2539      H2552   1.084       .  S
C2540      C2542   1.445       .  S
C2541      N2545   1.157       .  T
C2542      N2546   1.157       .  T
C2543      N2548   1.157       .  T
C2544      N2547   1.157       .  T
C2553      C2554   1.411       .  A
C2553      C2558   1.402       .  A
C2553      C2567   1.444       .  S
C2554      C2559   1.488       .  S
C2554      C2555   1.402       .  A
C2555      C2556   1.401       .  A
C2555      H2574   1.084       .  S
C2556      C2557   1.417       .  A
C2556      C2568   1.444       .  S
C2557      C2558   1.407       .  A
C2558      H2573   1.084       .  S
C2559      C2560   1.403       .  A
C2559      C2564   1.410       .  A
C2560      C2561   1.403       .  A
C2560      H2575   1.084       .  S
C2561      C2562   1.416       .  A
C2561      C2565   1.444       .  S
C2562      C2563   1.407       .  A
C2563      C2564   1.400       .  A
C2563      H2576   1.084       .  S
C2564      C2566   1.444       .  S
C2565      N2569   1.157       .  T
C2566      N2570   1.157       .  T
C2567      N2572   1.157       .  T
C2568      N2571   1.157       .  T
C2577      C2578   1.409       .  A
C2577      C2582   1.401       .  A
C2577      C2591   1.444       .  S
C2578      C2583   1.485       .  S
C2578      C2579   1.400       .  A
C2579      C2580   1.399       .  A
C2579      H2598   1.084       .  S
C2580      C2581   1.422       .  A
C2580      C2592   1.445       .  S
C2581      C2582   1.408       .  A
C2582      H2597   1.084       .  S
C2583      C2584   1.402       .  A
C2583      C2588   1.411       .  A
C2584      C2585   1.399       .  A
C2584      H2599   1.084       .  S
C2585      C2586   1.415       .  A
C2585      C2589   1.445       .  S
C2586      C2587   1.405       .  A
C2587      C2588   1.402       .  A
C2587      H2600   1.084       .  S
C2588      C2590   1.444       .  S
C2589      N2593   1.157       .  T
C2590      N2594   1.157       .  T
C2591      N2596   1.157       .  T
C2592      N2595   1.158       .  T
C2601      C2602   1.412       .  A
C2601      C2606   1.403       .  A
C2601      C2615   1.443       .  S
C2602      C2607   1.486       .  S
C2602      C2603   1.403       .  A
C2603      C2604   1.397       .  A
C2603      H2622   1.084       .  S
C2604      C2605   1.411       .  A
C2604      C2616   1.445       .  S
C2605      C2606   1.404       .  A
C2606      H2621   1.084       .  S
C2607      C2608   1.401       .  A
C2607      C2612   1.409       .  A
C2608      C2609   1.401       .  A
C2608      H2623   1.084       .  S
C2609      C2610   1.421       .  A
C2609      C2613   1.445       .  S
C2610      C2611   1.409       .  A
C2611      C2612   1.399       .  A
C2611      H2624   1.084       .  S
C2612      C2614   1.444       .  S
C2613      N2617   1.158       .  T
C2614      N2618   1.157       .  T
C2615      N2620   1.157       .  T
C2616      N2619   1.157       .  T
C2625      C2626   1.413       .  A
C2625      C2630   1.404       .  A
C2625      C2639   1.444       .  S
C2626      C2631   1.493       .  S
C2626      C2627   1.403       .  A
C2627      C2628   1.400       .  A
C2627      H2646   1.084       .  S
C2628      C2629   1.417       .  A
C2628      C2640   1.445       .  S
C2629      C2630   1.407       .  A
C2630      H2645   1.084       .  S
C2631      C2632   1.403       .  A
C2631      C2636   1.412       .  A
C2632      C2633   1.401       .  A
C2632      H2647   1.084       .  S
C2633      C2634   1.420       .  A
C2633      C2637   1.445       .  S
C2634      C2635   1.407       .  A
C2635      C2636   1.402       .  A
C2635      H2648   1.084       .  S
C2636      C2638   1.444       .  S
C2637      N2641   1.157       .  T
C2638      N2642   1.157       .  T
C2639      N2644   1.157       .  T
C2640      N2643   1.157       .  T
C2649      C2650   1.409       .  A
C2649      C2654   1.399       .  A
C2649      C2663   1.444       .  S
C2650      C2655   1.483       .  S
C2650      C2651   1.401       .  A
C2651      C2652   1.400       .  A
C2651      H2670   1.084       .  S
C2652      C2653   1.417       .  A
C2652      C2664   1.444       .  S
C2653      C2654   1.408       .  A
C2654      H2669   1.084       .  S
C2655      C2656   1.402       .  A
C2655      C2660   1.410       .  A
C2656      C2657   1.399       .  A
C2656      H2671   1.084       .  S
C2657      C2658   1.414       .  A
C2657      C2661   1.445       .  S
C2658      C2659   1.405       .  A
C2659      C2660   1.400       .  A
C2659      H2672   1.080       .  S
C2660      C2662   1.444       .  S
C2661      N2665   1.157       .  T
C2662      N2666   1.157       .  T
C2663      N2668   1.157       .  T
C2664      N2667   1.157       .  T
C2673      C2674   1.410       .  A
C2673      C2678   1.403       .  A
C2673      C2687   1.444       .  S
C2674      C2679   1.488   1_655  S
C2674      C2675   1.402       .  A
C2675      C2676   1.401       .  A
C2675      H2694   1.084       .  S
C2676      C2677   1.418       .  A
C2676      C2688   1.444       .  S
C2677      C2678   1.407       .  A
C2678      H2693   1.082       .  S
C2679      C2680   1.402       .  A
C2679      C2684   1.410       .  A
C2680      C2681   1.401       .  A
C2680      H2695   1.085       .  S
C2681      C2682   1.418       .  A
C2681      C2685   1.445       .  S
C2682      C2683   1.408       .  A
C2683      C2684   1.403       .  A
C2683      H2696   1.084       .  S
C2684      C2686   1.443       .  S
C2685      N2689   1.157       .  T
C2686      N2690   1.157       .  T
C2687      N2692   1.157       .  T
C2688      N2691   1.157       .  T
C2697      C2698   1.410       .  A
C2697      C2702   1.400       .  A
C2697      C2711   1.444       .  S
C2698      C2703   1.485   1_556  S
C2698      C2699   1.401       .  A
C2699      C2700   1.400       .  A
C2699      H2718   1.084       .  S
C2700      C2701   1.419       .  A
C2700      C2712   1.445       .  S
C2701      C2702   1.407       .  A
C2702      H2717   1.084       .  S
C2703      C2704   1.401       .  A
C2703      C2708   1.410       .  A
C2704      C2705   1.397       .  A
C2704      H2719   1.084       .  S
C2705      C2706   1.419       .  A
C2705      C2709   1.445       .  S
C2706      C2707   1.408       .  A
C2707      C2708   1.402       .  A
C2707      H2720   1.084       .  S
C2708      C2710   1.444       .  S
C2709      N2713   1.157       .  T
C2710      N2714   1.157       .  T
C2711      N2716   1.157       .  T
C2712      N2715   1.157       .  T
C2721      C2722   1.409       .  A
C2721      C2726   1.402       .  A
C2721      C2735   1.444       .  S
C2722      C2727   1.482       .  S
C2722      C2723   1.401       .  A
C2723      C2724   1.400       .  A
C2723      H2742   1.084       .  S
C2724      C2725   1.415       .  A
C2724      C2736   1.445       .  S
C2725      C2726   1.406       .  A
C2726      H2741   1.084       .  S
C2727      C2728   1.401       .  A
C2727      C2732   1.408       .  A
C2728      C2729   1.402       .  A
C2728      H2743   1.084       .  S
C2729      C2730   1.417       .  A
C2729      C2733   1.444       .  S
C2730      C2731   1.407       .  A
C2731      C2732   1.400       .  A
C2731      H2744   1.084       .  S
C2732      C2734   1.444       .  S
C2733      N2737   1.157       .  T
C2734      N2738   1.157       .  T
C2735      N2740   1.157       .  T
C2736      N2739   1.157       .  T
C2745      C2746   1.408       .  A
C2745      C2750   1.400       .  A
C2745      C2759   1.444       .  S
C2746      C2751   1.488       .  S
C2746      C2747   1.404       .  A
C2747      C2748   1.405       .  A
C2747      H2766   1.084       .  S
C2748      C2749   1.416       .  A
C2748      C2760   1.444       .  S
C2749      C2750   1.409       .  A
C2750      H2765   1.084       .  S
C2751      C2752   1.404       .  A
C2751      C2756   1.409       .  A
C2752      C2753   1.405       .  A
C2752      H2767   1.084       .  S
C2753      C2754   1.416       .  A
C2753      C2757   1.445       .  S
C2754      C2755   1.406       .  A
C2755      C2756   1.400       .  A
C2755      H2768   1.084       .  S
C2756      C2758   1.444       .  S
C2757      N2761   1.158       .  T
C2758      N2762   1.157       .  T
C2759      N2764   1.157       .  T
C2760      N2763   1.157       .  T
C2769      C2770   1.408       .  A
C2769      C2774   1.396       .  A
C2769      C2783   1.445       .  S
C2770      C2775   1.479   1_565  S
C2770      C2771   1.403       .  A
C2771      C2772   1.403       .  A
C2771      H2790   1.084       .  S
C2772      C2773   1.415       .  A
C2772      C2784   1.444       .  S
C2773      C2774   1.404       .  A
C2774      H2789   1.084       .  S
C2775      C2776   1.401       .  A
C2775      C2780   1.407       .  A
C2776      C2777   1.400       .  A
C2776      H2791   1.084       .  S
C2777      C2778   1.415       .  A
C2777      C2781   1.444       .  S
C2778      C2779   1.408       .  A
C2779      C2780   1.399       .  A
C2779      H2792   1.084       .  S
C2780      C2782   1.444       .  S
C2781      N2785   1.157       .  T
C2782      N2786   1.157       .  T
C2783      N2788   1.157   1_565  T
C2784      N2787   1.157       .  T
C2793      C2794   1.407       .  A
C2793      C2798   1.401       .  A
C2793      C2807   1.444       .  S
C2794      C2799   1.478   1_556  S
C2794      C2795   1.399       .  A
C2795      C2796   1.398       .  A
C2795      H2814   1.084       .  S
C2796      C2797   1.418       .  A
C2796      C2808   1.445       .  S
C2797      C2798   1.407       .  A
C2798      H2813   1.084       .  S
C2799      C2800   1.400       .  A
C2799      C2804   1.408       .  A
C2800      C2801   1.399       .  A
C2800      H2815   1.084       .  S
C2801      C2802   1.416       .  A
C2801      C2805   1.445       .  S
C2802      C2803   1.406       .  A
C2803      C2804   1.400       .  A
C2803      H2816   1.084       .  S
C2804      C2806   1.443       .  S
C2805      N2809   1.157       .  T
C2806      N2810   1.157       .  T
C2807      N2812   1.157       .  T
C2808      N2811   1.157       .  T
C2817      C2818   1.411       .  A
C2817      C2822   1.400       .  A
C2817      C2831   1.444       .  S
C2818      C2823   1.491       .  S
C2818      C2819   1.403       .  A
C2819      C2820   1.401       .  A
C2819      H2838   1.084       .  S
C2820      C2821   1.418       .  A
C2820      C2832   1.444       .  S
C2821      C2822   1.409       .  A
C2822      H2837   1.084       .  S
C2823      C2824   1.405       .  A
C2823      C2828   1.414       .  A
C2824      C2825   1.401       .  A
C2824      H2839   1.085       .  S
C2825      C2826   1.412       .  A
C2825      C2829   1.444       .  S
C2826      C2827   1.405       .  A
C2827      C2828   1.402       .  A
C2827      H2840   1.085       .  S
C2828      C2830   1.445       .  S
C2829      N2833   1.157       .  T
C2830      N2834   1.157       .  T
C2831      N2836   1.157       .  T
C2832      N2835   1.157       .  T
C2841      C2842   1.410       .  A
C2841      C2846   1.400       .  A
C2841      C2855   1.444       .  S
C2842      C2847   1.484       .  S
C2842      C2843   1.402       .  A
C2843      C2844   1.400       .  A
C2843      H2862   1.084       .  S
C2844      C2845   1.415       .  A
C2844      C2856   1.444       .  S
C2845      C2846   1.406       .  A
C2846      H2861   1.084       .  S
C2847      C2848   1.401       .  A
C2847      C2852   1.409       .  A
C2848      C2849   1.400       .  A
C2848      H2863   1.084       .  S
C2849      C2850   1.419       .  A
C2849      C2853   1.444       .  S
C2850      C2851   1.410       .  A
C2851      C2852   1.401       .  A
C2851      H2864   1.084       .  S
C2852      C2854   1.444       .  S
C2853      N2857   1.157       .  T
C2854      N2858   1.157       .  T
C2855      N2860   1.157       .  T
C2856      N2859   1.157       .  T
C2865      C2866   1.411       .  A
C2865      C2870   1.403       .  A
C2865      C2879   1.444       .  S
C2866      C2871   1.486       .  S
C2866      C2867   1.401       .  A
C2867      C2868   1.399       .  A
C2867      H2886   1.084       .  S
C2868      C2869   1.416       .  A
C2868      C2880   1.445       .  S
C2869      C2870   1.405       .  A
C2870      H2885   1.084       .  S
C2871      C2872   1.400       .  A
C2871      C2876   1.410       .  A
C2872      C2873   1.399       .  A
C2872      H2887   1.085       .  S
C2873      C2874   1.421       .  A
C2873      C2877   1.445       .  S
C2874      C2875   1.409       .  A
C2875      C2876   1.403       .  A
C2875      H2888   1.084       .  S
C2876      C2878   1.444       .  S
C2877      N2881   1.157       .  T
C2878      N2882   1.157       .  T
C2879      N2884   1.157       .  T
C2880      N2883   1.157       .  T
C2889      C2890   1.409       .  A
C2889      C2894   1.401       .  A
C2889      C2903   1.444       .  S
C2890      C2895   1.488   1_655  S
C2890      C2891   1.400       .  A
C2891      C2892   1.402       .  A
C2891      H2910   1.084       .  S
C2892      C2893   1.423       .  A
C2892      C2904   1.445       .  S
C2893      C2894   1.409       .  A
C2894      H2909   1.084       .  S
C2895      C2896   1.402       .  A
C2895      C2900   1.411       .  A
C2896      C2897   1.398       .  A
C2896      H2911   1.084       .  S
C2897      C2898   1.414       .  A
C2897      C2901   1.445       .  S
C2898      C2899   1.406       .  A
C2899      C2900   1.404       .  A
C2899      H2912   1.084       .  S
C2900      C2902   1.444       .  S
C2901      N2905   1.157       .  T
C2902      N2906   1.157       .  T
C2903      N2908   1.157       .  T
C2904      N2907   1.158       .  T
C2913      C2914   1.410       .  A
C2913      C2918   1.401       .  A
C2913      C2927   1.444       .  S
C2914      C2919   1.492   1_565  S
C2914      C2915   1.402       .  A
C2915      C2916   1.402       .  A
C2915      H2934   1.084       .  S
C2916      C2917   1.421       .  A
C2916      C2928   1.444       .  S
C2917      C2918   1.410       .  A
C2918      H2933   1.084       .  S
C2919      C2920   1.403       .  A
C2919      C2924   1.413       .  A
C2920      C2921   1.399       .  A
C2920      H2935   1.086       .  S
C2921      C2922   1.415       .  A
C2921      C2925   1.445       .  S
C2922      C2923   1.405       .  A
C2923      C2924   1.405       .  A
C2923      H2936   1.085       .  S
C2924      C2926   1.444       .  S
C2925      N2929   1.157       .  T
C2926      N2930   1.157       .  T
C2927      N2932   1.157       .  T
C2928      N2931   1.157       .  T
C2937      C2938   1.406       .  A
C2937      C2942   1.397       .  A
C2937      C2951   1.444       .  S
C2938      C2943   1.474       .  S
C2938      C2939   1.401       .  A
C2939      C2940   1.398       .  A
C2939      H2958   1.084       .  S
C2940      C2941   1.415       .  A
C2940      C2952   1.445       .  S
C2941      C2942   1.407       .  A
C2942      H2957   1.084       .  S
C2943      C2944   1.400       .  A
C2943      C2948   1.406       .  A
C2944      C2945   1.398       .  A
C2944      H2959   1.084       .  S
C2945      C2946   1.416       .  A
C2945      C2949   1.445       .  S
C2946      C2947   1.406       .  A
C2947      C2948   1.397       .  A
C2947      H2960   1.084       .  S
C2948      C2950   1.444       .  S
C2949      N2953   1.157       .  T
C2950      N2954   1.157       .  T
C2951      N2956   1.157       .  T
C2952      N2955   1.157       .  T
C2961      C2962   1.409       .  A
C2961      C2966   1.399       .  A
C2961      C2975   1.444       .  S
C2962      C2967   1.488       .  S
C2962      C2963   1.403       .  A
C2963      C2964   1.401       .  A
C2963      H2982   1.084       .  S
C2964      C2965   1.419       .  A
C2964      C2976   1.444       .  S
C2965      C2966   1.409       .  A
C2966      H2981   1.084       .  S
C2967      C2968   1.403       .  A
C2967      C2972   1.410       .  A
C2968      C2969   1.401       .  A
C2968      H2983   1.084       .  S
C2969      C2970   1.418       .  A
C2969      C2973   1.445       .  S
C2970      C2971   1.407       .  A
C2971      C2972   1.400       .  A
C2971      H2984   1.084       .  S
C2972      C2974   1.444       .  S
C2973      N2977   1.158       .  T
C2974      N2978   1.157       .  T
C2975      N2980   1.157       .  T
C2976      N2979   1.157       .  T
C2985      C2986   1.410       .  A
C2985      C2990   1.403       .  A
C2985      C2999   1.444       .  S
C2986      C2991   1.486       .  S
C2986      C2987   1.402       .  A
C2987      C2988   1.403       .  A
C2987      H3006   1.084       .  S
C2988      C2989   1.416       .  A
C2988      C3000   1.444       .  S
C2989      C2990   1.406       .  A
C2990      H3005   1.084       .  S
C2991      C2992   1.400       .  A
C2991      C2996   1.409       .  A
C2992      C2993   1.402       .  A
C2992      H3007   1.085       .  S
C2993      C2994   1.422       .  A
C2993      C2997   1.445       .  S
C2994      C2995   1.408       .  A
C2995      C2996   1.403       .  A
C2995      H3008   1.084       .  S
C2996      C2998   1.443       .  S
C2997      N3001   1.157       .  T
C2998      N3002   1.157       .  T
C2999      N3004   1.157       .  T
C3000      N3003   1.157       .  T
