geometry optimzed in LAMMPS
_audit_creation_date              2020-11-30 
_audit_creation_method            'lammps2cif' 
_symmetry_space_group_name_H-M    'P1' 
_symmetry_Int_Tables_number       1 
_symmetry_cell_setting            triclinic 
loop_ 
_symmetry_equiv_pos_as_xyz 
  x,y,z 
_cell_length_a                    23.15126929 
_cell_length_b                    24.49865287142523 
_cell_length_c                    45.677441261454966 
_cell_angle_alpha                 81.91239968560781 
_cell_angle_beta                  88.56430356900559 
_cell_angle_gamma                 85.48914702391589 
loop_ 
_atom_site_label 
_atom_site_type_symbol 
_atom_site_fract_x 
_atom_site_fract_y 
_atom_site_fract_z 
_atom_site_charge 
C1          C  0.67753980  0.58247802  0.28699889     0.85000
C2          C  0.65390971  0.64229605  0.27850782    -0.55200
C3          C  0.59939239  0.65355543  0.28925559     0.07900
C4          C  0.57364290  0.60274822  0.30752801     0.18900
C5          C  0.67222694  0.57151223  0.32082535    -0.56000
C6          C  0.61769287  0.58125446  0.33187524     0.08000
C7          C  0.63290109  0.54896337  0.27541019    -0.55500
C8          C  0.57922670  0.55695878  0.28710649     0.08600
H9          H  0.67854098  0.67340339  0.26558598     0.13100
H10         H  0.52961847  0.61243471  0.31603249    -0.01100
H11         H  0.70936753  0.55687644  0.33457233     0.13400
H12         H  0.64264344  0.52219967  0.25880925     0.13200
C13         C  0.03070286  0.16776495  0.28148693     0.85000
C14         C  0.06390492  0.11557713  0.27246795    -0.55200
C15         C  0.04582853  0.06636303  0.28710417     0.07900
C16         C  0.99628693  0.07488760  0.30925314     0.18900
C17         C  0.96632459  0.15955486  0.27691355    -0.56000
C18         C  0.94862186  0.11131455  0.29158890     0.08000
C19         C  0.03633255  0.16101802  0.31509515    -0.55500
C20         C  0.01936831  0.11237619  0.32930804     0.08600
H21         H  0.09889906  0.11881397  0.25633973     0.13100
H22         H  0.98046772  0.03685603  0.32181432    -0.01100
H23         H  0.93601414  0.18872779  0.26413586     0.13400
H24         H  0.05356846  0.19172080  0.32680165     0.13200
C25         C  0.09735313  0.66566636  0.00884034     0.85000
C26         C  0.16035714  0.64527562  0.01623798    -0.55200
C27         C  0.17465576  0.59104288  0.01372045     0.07900
C28         C  0.12265261  0.56073126  0.50473503     0.18900
C29         C  0.08815771  0.65007135  0.47802559    -0.56000
C30         C  0.10092926  0.59546493  0.47566070     0.08000
C31         C  0.06103843  0.62560479  0.02985981    -0.55500
C32         C  0.07279284  0.57046234  0.02770661     0.08600
H33         H  0.19191059  0.67216203  0.02227176     0.13100
H34         H  0.13486839  0.51710229  0.50209466    -0.01100
H35         H  0.07136855  0.67968474  0.45967993     0.13400
H36         H  0.02874237  0.63947110  0.04514964     0.13200
C37         C  0.43540027  0.49652451  0.27956019     0.85000
C38         C  0.47783008  0.53377829  0.28961820    -0.55200
C39         C  0.53356952  0.52086463  0.28225555     0.07900
C40         C  0.54244718  0.46874249  0.26629139     0.18900
C41         C  0.44719680  0.49671534  0.24639431    -0.56000
C42         C  0.50331377  0.48316682  0.23944636     0.08000
C43         C  0.45633744  0.43776955  0.29352449    -0.55500
C44         C  0.51253990  0.42252278  0.28625865     0.08600
H45         H  0.46329060  0.56942108  0.30017100     0.13100
H46         H  0.58757740  0.45584790  0.26033387    -0.01100
H47         H  0.41436763  0.50903371  0.22964114     0.13400
H48         H  0.42855728  0.40877165  0.30572575     0.13200
C49         C  0.60083187  0.92222309  0.06518892     0.85000
C50         C  0.58260018  0.93663792  0.09603756    -0.55200
C51         C  0.58869577  0.99015320  0.10000067     0.07900
C52         C  0.61234228  0.02552855  0.07194736     0.18900
C53         C  0.56424584  0.96458488  0.04375813    -0.56000
C54         C  0.56868023  0.01900207  0.04682750     0.08000
C55         C  0.66310574  0.93982474  0.06093821    -0.55500
C56         C  0.67055474  0.99325901  0.06463635     0.08600
H57         H  0.56824709  0.90724024  0.11411603     0.13100
H58         H  0.61813801  0.06852517  0.07552629    -0.01100
H59         H  0.53647755  0.95148552  0.02776054     0.13400
H60         H  0.69941761  0.91085655  0.05684356     0.13200
C61         C  0.01243690  0.42994165  0.06185297     0.85000
C62         C  0.04854080  0.47065713  0.04128554    -0.55200
C63         C  0.03851600  0.52534019  0.04489205     0.07900
C64         C  0.99014499  0.53408386  0.06884154     0.18900
C65         C  0.02396499  0.44242834  0.09307168    -0.56000
C66         C  0.01253347  0.49649465  0.09700395     0.08000
C67         C  0.94946707  0.45206860  0.05572839    -0.55500
C68         C  0.93669875  0.50578321  0.05971258     0.08600
H69         H  0.07898993  0.45753672  0.02498558     0.13100
H70         H  0.97952645  0.57741904  0.07262078    -0.01100
H71         H  0.04044964  0.41095963  0.11066327     0.13400
H72         H  0.91672788  0.42659082  0.04948722     0.13200
C73         C  0.50207623  0.16250323  0.50886946     0.85000
C74         C  0.43943964  0.14604865  0.01356800    -0.55200
C75         C  0.43101807  0.09253080  0.51058820     0.07900
C76         C  0.48848586  0.05900262  0.50342272     0.18900
C77         C  0.53830103  0.12032750  0.03061850    -0.56000
C78         C  0.53278754  0.06579992  0.02819639     0.08000
C79         C  0.51950440  0.14651134  0.47820895    -0.55500
C80         C  0.51236372  0.09279319  0.47493054     0.08600
H81         H  0.40355161  0.17587761  0.01709671     0.13100
H82         H  0.48163657  0.01592182  0.50043711    -0.01100
H83         H  0.56690460  0.13357410  0.04620121     0.13400
H84         H  0.53434265  0.17502540  0.45984499     0.13200
C85         C  0.08079533  0.90898003  0.28447981     0.85000
C86         C  0.14673167  0.91436765  0.28373599    -0.55200
C87         C  0.16266048  0.96319885  0.26909646     0.07900
C88         C  0.11215217  0.00226073  0.25607511     0.18900
C89         C  0.05442506  0.96080399  0.29717506    -0.56000
C90         C  0.07057325  0.01019408  0.28192147     0.08000
C91         C  0.06430070  0.91948141  0.25174625    -0.55500
C92         C  0.07937567  0.96877733  0.23720703     0.09800
H93         H  0.17891500  0.88363134  0.29392331     0.13100
H94         H  0.12649005  0.04078283  0.24359648    -0.01100
H95         H  0.02464720  0.95761711  0.31587937     0.13400
H96         H  0.04185248  0.89057549  0.24103492     0.13200
O97         O  0.08842935  0.17740223  0.03490290    -0.82400
O98         O  0.09267410  0.93966569  0.00833500    -0.67100
O99         O  0.03880999  0.09020210  0.01513796    -1.13700
C100        C  0.02880031  0.01880120  0.11620406     1.04500
O101        O  0.01486519  0.91683490  0.03416311    -0.80300
O102        O  0.94488526  0.97558179  0.06834964    -0.67800
Ni103      Ni  0.07987376  0.15061567  0.99798426     1.34900
C104        C  0.91914112  0.02333048  0.06222411     0.83300
O105        O  0.07231355  0.03298417  0.46816762    -0.80800
O106        O  0.07142813  0.12652986  0.46081795    -0.91100
C107        C  0.05818560  0.90309464  0.01846900     0.82800
O108        O  0.15794882  0.11902700  0.00024821    -0.69300
O109        O  0.02937328  0.97114154  0.10785808    -0.88600
C110        C  0.18207295  0.07072327  0.00687771     0.83700
C111        C  0.06759907  0.07997026  0.45175133     1.05200
H112        H  0.10031196  0.00210099  0.06080672     0.37000
O113        O  0.06186147  0.00651022  0.05264504    -1.11200
O114        O  0.94718155  0.06668502  0.05495051    -0.67900
Ni115      Ni  0.03067177  0.07970553  0.05699143     1.26300
O116        O  0.15260182  0.02836084  0.01322779    -0.68100
O117        O  0.02686619  0.06477564  0.09907740    -0.80400
C118        C  0.04424507  0.19283422  0.04951542     0.83000
O119        O  0.00787823  0.15740850  0.05887441    -0.67600
Ni120      Ni  0.02310345  0.94536720  0.07073447     1.27400
Ni121      Ni  0.06939532  0.01701031  0.01058123     1.26100
H122        H  0.00046929  0.09552094  0.00680923     0.37600
O123        O  0.39833242  0.06198242  0.29692322    -0.82400
O124        O  0.67122120  0.07866637  0.30183240    -0.67100
O125        O  0.51357150  0.07499611  0.28013996    -1.13700
C126        C  0.55751941  0.88614987  0.27761587     1.04500
O127        O  0.70781387  0.01120529  0.27707671    -0.80300
O128        O  0.62752087  0.00766037  0.23590142    -0.67800
Ni129      Ni  0.45616802  0.11043991  0.30364269     1.34900
C130        C  0.57778008  0.00858435  0.22479109     0.83300
O131        O  0.58650503  0.15728579  0.28651828    -0.80800
O132        O  0.50425677  0.16732293  0.31188565    -0.91100
C133        C  0.71369698  0.05171814  0.29093613     0.82800
O134        O  0.47886054  0.06455539  0.33942908    -0.69300
O135        O  0.60189525  0.90525539  0.26421612    -0.88600
C136        C  0.52817841  0.06477577  0.35098458     0.83700
C137        C  0.54882913  0.18717690  0.29899014     1.05200
H138        H  0.59843279  0.98208102  0.31601819     0.37000
O139        O  0.59408965  0.99839516  0.29560155    -1.11200
O140        O  0.53294804  0.99857324  0.24117400    -0.67900
Ni141      Ni  0.51608257  0.99575171  0.28394234     1.26300
O142        O  0.57369911  0.07447737  0.33488441    -0.68100
O143        O  0.52058648  0.91655428  0.29006237    -0.80400
C144        C  0.39419629  0.02218717  0.28220593     0.83000
O145        O  0.43780048  0.99461527  0.27309106    -0.67600
Ni146      Ni  0.65036951  0.96229857  0.27169836     1.27400
Ni147      Ni  0.59160296  0.07774152  0.29199671     1.26100
H148        H  0.50947167  0.09114592  0.25969676     0.37600
O149        O  0.49067300  0.52452306  0.10085288    -0.82400
O150        O  0.53380374  0.52674140  0.47197168    -0.67100
O151        O  0.55513257  0.49902753  0.05492185    -1.13700
C152        C  0.59162801  0.69239459  0.04028568     1.04500
O153        O  0.61944002  0.56115012  0.46988255    -0.80300
O154        O  0.68043798  0.59619199  0.01262514    -0.67800
Ni155      Ni  0.49951221  0.46244592  0.08004646     1.34900
C156        C  0.69198207  0.57143080  0.03835806     0.83300
O157        O  0.52800190  0.43274319  0.01204634    -0.80800
O158        O  0.50742758  0.39925652  0.05939416    -0.91100
C159        C  0.57716305  0.54466811  0.45714235     0.82800
O160        O  0.42879180  0.48766786  0.05988979    -0.69300
O161        O  0.60237378  0.68512407  0.01340548    -0.88600
C162        C  0.41767910  0.51552088  0.03485645     0.83700
C163        C  0.51647539  0.39269027  0.03232271     1.05200
H164        H  0.51884841  0.60843562  0.01468848     0.37000
O165        O  0.55494262  0.58592864  0.01785041    -1.11200
O166        O  0.65216571  0.55804933  0.05734499    -0.67900
Ni167      Ni  0.56817575  0.57505772  0.05907342     1.26300
O168        O  0.45764566  0.52969131  0.01619359    -0.68100
O169        O  0.57934818  0.65285800  0.06064954    -0.80400
C170        C  0.53335556  0.53549358  0.11522141     0.83000
O171        O  0.57475990  0.55916655  0.10129766    -0.67600
Ni172      Ni  0.61004434  0.62207017  0.99232630     1.27400
Ni173      Ni  0.54095796  0.51051726  0.01387732     1.26100
H174        H  0.59143562  0.47685222  0.05795510     0.37600
O175        O  0.93226762  0.51699268  0.31665687    -0.82400
O176        O  0.16690573  0.58391456  0.30301378    -0.67100
O177        O  0.01137838  0.57110284  0.28710202    -1.13700
C178        C  0.08585897  0.39230403  0.26531250     1.04500
O179        O  0.18032176  0.56035972  0.25876456    -0.80300
O180        O  0.11878158  0.50634107  0.22412085    -0.67800
Ni181      Ni  0.95304612  0.59058507  0.31430535     1.34900
C182        C  0.06603119  0.51808074  0.21736340     0.83300
O183        O  0.07271232  0.65352356  0.30402904    -0.80800
O184        O  0.97587743  0.66526964  0.31126768    -0.91100
C185        C  0.20046360  0.57333757  0.28215652     0.82800
O186        O  0.99205126  0.57276601  0.35122774    -0.69300
O187        O  0.13588917  0.41165082  0.26247619    -0.88600
C188        C  0.04444190  0.55932441  0.35817768     0.83700
C189        C  0.02641444  0.68346519  0.30854547     1.05200
H190        H  0.10901220  0.47946204  0.30669752     0.37000
O191        O  0.10008503  0.50325799  0.28839650    -1.11200
O192        O  0.02619058  0.52027947  0.23700205    -0.67900
Ni193      Ni  0.02314284  0.49490376  0.27929468     1.26300
O194        O  0.08388669  0.55346335  0.33871081    -0.68100
O195        O  0.03923999  0.42048184  0.27135532    -0.80400
C196        C  0.91084750  0.50567886  0.29322046     0.83000
O197        O  0.94380670  0.48858511  0.27358763    -0.67600
Ni198      Ni  0.15854248  0.48638014  0.26069799     1.27400
Ni199      Ni  0.08808852  0.57875248  0.29652275     1.26100
H200        H  0.00318663  0.59463153  0.26862557     0.37600
C201        C  0.28809138  0.04584212  0.27931810    -0.14800
C202        C  0.33566955  0.00790101  0.27590679     0.07300
C203        C  0.32625607  0.95639230  0.26741972    -0.14800
C204        C  0.26978199  0.94205312  0.26411869    -0.14800
C205        C  0.22243263  0.97945229  0.26878661     0.07300
C206        C  0.23204411  0.03182330  0.27563776    -0.14800
H207        H  0.29404106  0.08613873  0.28544416     0.11300
H208        H  0.36225142  0.92661257  0.26437033     0.11300
H209        H  0.26298282  0.90155622  0.25849645     0.11300
H210        H  0.19608355  0.06105628  0.27956876     0.11300
C211        C  0.09818421  0.81315140  0.31538276    -0.14800
C212        C  0.06022393  0.85382868  0.29946365     0.07300
C213        C  0.00436398  0.83912415  0.29347126    -0.14800
C214        C  0.99119170  0.78368278  0.29818249    -0.14800
C215        C  0.03304856  0.74243166  0.30987839     0.07300
C216        C  0.08507907  0.75804294  0.32007477    -0.14800
H217        H  0.13928539  0.82251751  0.32323383     0.11300
H218        H  0.97290008  0.86975293  0.28244718     0.11300
H219        H  0.95017750  0.77277320  0.29066369     0.11300
H220        H  0.11702406  0.72710955  0.33045434     0.11300
C221        C  0.09770381  0.02259751  0.18792544    -0.14800
C222        C  0.06158030  0.98974779  0.20686138     0.07300
C223        C  0.00885705  0.97583885  0.19646199    -0.14800
C224        C  0.99533320  0.98982053  0.16681755    -0.14800
C225        C  0.03352559  0.01919431  0.14762199     0.07300
C226        C  0.08339064  0.03770232  0.15837249    -0.14800
H227        H  0.13872358  0.03361494  0.19530693     0.11300
H228        H  0.97917281  0.95235160  0.21092603     0.11300
H229        H  0.95675148  0.97523938  0.15850978     0.11300
H230        H  0.11364116  0.05954621  0.14344198     0.11300
C231        C  0.52573255  0.26527863  0.49137219    -0.14800
C232        C  0.50735344  0.22332186  0.01350831     0.07300
C233        C  0.49146385  0.23891485  0.04125015    -0.14800
C234        C  0.49415402  0.29337623  0.04690251    -0.14800
C235        C  0.51291233  0.33504562  0.02503109     0.07300
C236        C  0.52833931  0.32019252  0.99707721    -0.14800
H237        H  0.53820298  0.25686802  0.46948695     0.11300
H238        H  0.47662596  0.20851059  0.05879257     0.11300
H239        H  0.48132738  0.30269587  0.06871934     0.11300
H240        H  0.54284322  0.35092271  0.47961893     0.11300
C241        C  0.48040502  0.04623868  0.43247527    -0.14800
C242        C  0.52267409  0.07313453  0.44533161     0.07300
C243        C  0.57109121  0.08918308  0.42780013    -0.14800
C244        C  0.57524101  0.08222780  0.39776487    -0.14800
C245        C  0.53068522  0.05961678  0.38414786     0.07300
C246        C  0.48409218  0.03999673  0.40221794    -0.14800
H247        H  0.44241674  0.03369601  0.44521906     0.11300
H248        H  0.60463745  0.10974371  0.43703994     0.11300
H249        H  0.61155529  0.09807940  0.38474893     0.11300
H250        H  0.44888476  0.02226746  0.39261423     0.11300
C251        C  0.34271455  0.03903745  0.02880417    -0.14800
C252        C  0.37011050  0.07618700  0.00739300     0.07300
C253        C  0.33583454  0.10565366  0.48460074    -0.14800
C254        C  0.27590847  0.10087008  0.48396595    -0.14800
C255        C  0.24747048  0.06615100  0.00601445     0.07300
C256        C  0.28201633  0.03379186  0.02802559    -0.14800
H257        H  0.36759428  0.01631377  0.04694620     0.11300
H258        H  0.35523860  0.13471869  0.46785273     0.11300
H259        H  0.25115198  0.12621122  0.46656438     0.11300
H260        H  0.26173892  0.00700840  0.04552883     0.11300
C261        C  0.08226913  0.51444217  0.13462043    -0.14800
C262        C  0.02466864  0.51522519  0.12573724     0.07300
C263        C  0.98001097  0.52452046  0.14628590    -0.14800
C264        C  0.99299057  0.52945450  0.17577230    -0.14800
C265        C  0.05097092  0.52528025  0.18520262     0.07300
C266        C  0.09527295  0.51985164  0.16380826    -0.14800
H267        H  0.11740465  0.50679871  0.11925076     0.11300
H268        H  0.93520260  0.52450975  0.14001184     0.11300
H269        H  0.95767055  0.53335444  0.19151527     0.11300
H270        H  0.14040060  0.51649196  0.16997218     0.11300
C271        C  0.83184822  0.50499107  0.07581219    -0.14800
C272        C  0.87516789  0.52993771  0.05749627     0.07300
C273        C  0.85780595  0.57086924  0.03411155    -0.14800
C274        C  0.79856890  0.58472123  0.02836551    -0.14800
C275        C  0.75491592  0.55843952  0.04603471     0.07300
C276        C  0.77258145  0.51946737  0.07039950    -0.14800
H277        H  0.84402500  0.47275180  0.09381651     0.11300
H278        H  0.89002571  0.59009768  0.01935579     0.11300
H279        H  0.78694824  0.61545525  0.00959793     0.11300
H280        H  0.74063955  0.49857831  0.08461823     0.11300
C281        C  0.98382124  0.33010675  0.07363231    -0.14800
C282        C  0.02258074  0.36768283  0.05944174     0.07300
C283        C  0.07018803  0.34561889  0.04395055    -0.14800
C284        C  0.07705287  0.28914523  0.04150743    -0.14800
C285        C  0.03688075  0.25219055  0.05445415     0.07300
C286        C  0.99033373  0.27338813  0.07083294    -0.14800
H287        H  0.94754054  0.34494932  0.08653272     0.11300
H288        H  0.10323239  0.37105120  0.03388432     0.11300
H289        H  0.11410253  0.27453361  0.02903925     0.11300
H290        H  0.95881789  0.24629107  0.08133181     0.11300
C291        C  0.52847094  0.99453111  0.17808207    -0.14800
C292        C  0.57371803  0.01601879  0.19174586     0.07300
C293        C  0.61940801  0.03725189  0.17362924    -0.14800
C294        C  0.62173865  0.03356013  0.14311752    -0.14800
C295        C  0.57894991  0.00774542  0.13004829     0.07300
C296        C  0.53127708  0.99010810  0.14773049    -0.14800
H297        H  0.49278203  0.97759330  0.19119762     0.11300
H298        H  0.65499585  0.05424732  0.18333037     0.11300
H299        H  0.65920539  0.04710511  0.13024559     0.11300
H300        H  0.49744643  0.97017033  0.13831821     0.11300
C301        C  0.57806896  0.76410593  0.07559516    -0.14800
C302        C  0.59371840  0.75019521  0.04749830     0.07300
C303        C  0.61119301  0.79270865  0.02576210    -0.14800
C304        C  0.61274654  0.84711908  0.03184106    -0.14800
C305        C  0.59677905  0.86162245  0.05983939     0.07300
C306        C  0.57945950  0.81877379  0.08170135    -0.14800
H307        H  0.56446780  0.73271240  0.09294351     0.11300
H308        H  0.62392268  0.78405847  0.00381312     0.11300
H309        H  0.62675432  0.87829632  0.01447482     0.11300
H310        H  0.56703240  0.82615535  0.10374686     0.11300
C311        C  0.75444660  0.05428991  0.04768299    -0.14800
C312        C  0.73129652  0.01103270  0.06712163     0.07300
C313        C  0.76961709  0.97788520  0.08679043    -0.14800
C314        C  0.82921104  0.98477677  0.08582087    -0.14800
C315        C  0.85366856  0.02523716  0.06513029     0.07300
C316        C  0.81502126  0.06144629  0.04673967    -0.14800
H317        H  0.72631291  0.08049595  0.03210524     0.11300
H318        H  0.75362188  0.94452937  0.10222413     0.11300
H319        H  0.85679319  0.95660537  0.10083803     0.11300
H320        H  0.83183535  0.09314996  0.03058150     0.11300
C321        C  0.56659543  0.33782447  0.27037982    -0.14800
C322        C  0.53634735  0.36374499  0.29243699     0.07300
C323        C  0.52079372  0.33107347  0.31879128    -0.14800
C324        C  0.52952421  0.27352798  0.32179588    -0.14800
C325        C  0.55467644  0.24715077  0.29867263     0.07300
C326        C  0.57587201  0.27987194  0.27352152    -0.14800
H327        H  0.57888253  0.36181396  0.24973784     0.11300
H328        H  0.49854186  0.34987892  0.33642788     0.11300
H329        H  0.51345863  0.24941357  0.34160903     0.11300
H330        H  0.59518826  0.26063959  0.25530415     0.11300
C331        C  0.35753906  0.57193660  0.26973119    -0.14800
C332        C  0.37494660  0.51932145  0.28506142     0.07300
C333        C  0.33568533  0.49086412  0.30418485    -0.14800
C334        C  0.27858198  0.51229571  0.30549660    -0.14800
C335        C  0.26089017  0.56168043  0.28766575     0.07300
C336        C  0.30038982  0.59249304  0.27054568    -0.14800
H337        H  0.38774055  0.59552921  0.25561584     0.11300
H338        H  0.34769328  0.45169974  0.31733431     0.11300
H339        H  0.24729734  0.48836588  0.31865398     0.11300
H340        H  0.28643290  0.63059870  0.25665458     0.11300
C341        C  0.56047672  0.52831108  0.19712835    -0.14800
C342        C  0.52286982  0.48796981  0.20850767     0.07300
C343        C  0.49450752  0.45980884  0.18928012    -0.14800
C344        C  0.50032025  0.47421640  0.15895057    -0.14800
C345        C  0.53452017  0.51723783  0.14726771     0.07300
C346        C  0.56653970  0.54280416  0.16646692    -0.14800
H347        H  0.58179547  0.55110328  0.21184309     0.11300
H348        H  0.46520201  0.42878294  0.19781578     0.11300
H349        H  0.47621169  0.45290280  0.14460922     0.11300
H350        H  0.59343674  0.57580132  0.15787764     0.11300
C351        C  0.25167743  0.51960189  0.03659638    -0.14800
C352        C  0.23635972  0.56750137  0.01685151     0.07300
C353        C  0.28114407  0.59640671  0.50185163    -0.14800
C354        C  0.33972210  0.57864241  0.50686851    -0.14800
C355        C  0.35533661  0.53212419  0.02759339     0.07300
C356        C  0.31041883  0.50248942  0.04216219    -0.14800
H357        H  0.21827390  0.49674573  0.04861317     0.11300
H358        H  0.27068233  0.63350075  0.48645417     0.11300
H359        H  0.37282988  0.60246463  0.49524475     0.11300
H360        H  0.32072969  0.46619281  0.05813202     0.11300
C361        C  0.03015867  0.57273712  0.43988908    -0.14800
C362        C  0.08804706  0.57299737  0.44810677     0.07300
C363        C  0.13211572  0.56040171  0.42786967    -0.14800
C364        C  0.11825110  0.55150801  0.39911144    -0.14800
C365        C  0.06000114  0.55501144  0.39013954     0.07300
C366        C  0.01627443  0.56353385  0.41141879    -0.14800
H367        H  0.99549969  0.58261930  0.45510243     0.11300
H368        H  0.17712951  0.56092791  0.43366541     0.11300
H369        H  0.15314042  0.54533341  0.38340189     0.11300
H370        H  0.97098999  0.56651043  0.40557200     0.11300
C371        C  0.03440600  0.75033344  0.02267631    -0.14800
C372        C  0.08504339  0.72831280  0.00958001     0.07300
C373        C  0.12435813  0.76619829  0.49621438    -0.14800
C374        C  0.11578017  0.82317492  0.49825773    -0.14800
C375        C  0.06669921  0.84411731  0.01299928     0.07300
C376        C  0.02560122  0.80693056  0.02441435    -0.14800
H377        H  0.00064481  0.72457322  0.03151352     0.11300
H378        H  0.16276693  0.75144715  0.48479935     0.11300
H379        H  0.14800637  0.85052431  0.48882340     0.11300
H380        H  0.98641836  0.82141236  0.03530309     0.11300
C381        C  0.01721388  0.26477568  0.25141904    -0.14800
C382        C  0.05313528  0.22288366  0.26778831     0.07300
C383        C  0.10774593  0.23663653  0.27640377    -0.14800
C384        C  0.12094032  0.29197076  0.27377893    -0.14800
C385        C  0.08028971  0.33408073  0.26180360     0.07300
C386        C  0.03022370  0.31983023  0.24897137    -0.14800
H387        H  0.97717315  0.25663710  0.24195674     0.11300
H388        H  0.13745856  0.20516825  0.28813880     0.11300
H389        H  0.16051694  0.30197678  0.28327723     0.11300
H390        H  0.99947565  0.35169915  0.23836325     0.11300
C391        C  0.87665971  0.04257798  0.28935003    -0.14800
C392        C  0.88814389  0.09678099  0.29198443     0.07300
C393        C  0.84199438  0.13623875  0.29565838    -0.14800
C394        C  0.78479415  0.12145902  0.29654568    -0.14800
C395        C  0.77329903  0.06727828  0.29335174     0.07300
C396        C  0.81981547  0.02799671  0.28989213    -0.14800
H397        H  0.91164923  0.01171154  0.28632914     0.11300
H398        H  0.85024226  0.17826224  0.29808721     0.11300
H399        H  0.74970013  0.15253334  0.29893071     0.11300
H400        H  0.81226250  0.98586224  0.28731877     0.11300
C401        C  0.00314197  0.13680844  0.37899135    -0.14800
C402        C  0.02483524  0.09809112  0.36112934     0.07300
C403        C  0.05755477  0.04995353  0.37332002    -0.14800
C404        C  0.07117168  0.04230169  0.40334932    -0.14800
C405        C  0.05215137  0.08310872  0.42079676     0.07300
C406        C  0.01666561  0.12940502  0.40856727    -0.14800
H407        H  0.97738787  0.17380839  0.36975819     0.11300
H408        H  0.07479935  0.02004276  0.35938492     0.11300
H409        H  0.09808996  0.00612596  0.41258430     0.11300
H410        H  0.99998761  0.16062390  0.42184774     0.11300
C411        C  0.54827238  0.73597584  0.30836689    -0.14800
C412        C  0.57163949  0.71069787  0.28449796     0.07300
C413        C  0.57847736  0.74324244  0.25693240    -0.14800
C414        C  0.56869059  0.80058335  0.25409399    -0.14800
C415        C  0.55086021  0.82650754  0.27863137     0.07300
C416        C  0.53770292  0.79372755  0.30541096    -0.14800
H417        H  0.54306183  0.71181329  0.32987299     0.11300
H418        H  0.59559949  0.72459532  0.23806528     0.11300
H419        H  0.57871125  0.82497905  0.23317409     0.11300
H420        H  0.52438376  0.81293906  0.32469891     0.11300
C421        C  0.78054787  0.60368162  0.28346201    -0.14800
C422        C  0.73867033  0.56837894  0.27769115     0.07300
C423        C  0.75648247  0.51362451  0.27305270    -0.14800
C424        C  0.81394262  0.49390223  0.27623774    -0.14800
C425        C  0.85340655  0.52785054  0.28514340     0.07300
C426        C  0.83759804  0.58338933  0.28729823    -0.14800
H427        H  0.76845817  0.64522232  0.28809694     0.11300
H428        H  0.72627243  0.48367035  0.26993954     0.11300
H429        H  0.82656671  0.45102622  0.27422169     0.11300
H430        H  0.86867247  0.61043519  0.29335242     0.11300
C431        C  0.63848406  0.52846524  0.38228290    -0.14800
C432        C  0.60269737  0.56738648  0.36386813     0.07300
C433        C  0.55330897  0.59288192  0.37646336    -0.14800
C434        C  0.54201768  0.58192949  0.40688206    -0.14800
C435        C  0.58041631  0.54613869  0.42510537     0.07300
C436        C  0.62805728  0.51886585  0.41262244    -0.14800
H437        H  0.67535986  0.50575910  0.37356143     0.11300
H438        H  0.52464306  0.62308589  0.36331248     0.11300
H439        H  0.50547208  0.60400742  0.41641665     0.11300
H440        H  0.65809913  0.49114721  0.42652159     0.11300
C441        C  0.67753612  0.58247524  0.78699962     0.85000
C442        C  0.65390692  0.64229318  0.77850728    -0.55200
C443        C  0.59938938  0.65355405  0.78925450     0.07900
C444        C  0.57363888  0.60274800  0.80752763     0.18900
C445        C  0.67222236  0.57151164  0.82082605    -0.56000
C446        C  0.61768808  0.58125503  0.83187534     0.08000
C447        C  0.63289733  0.54896033  0.77541126    -0.55500
C448        C  0.57922269  0.55695704  0.78710694     0.08600
H449        H  0.67853874  0.67339943  0.76558494     0.13100
H450        H  0.52961448  0.61243557  0.81603189    -0.01100
H451        H  0.70936233  0.55687598  0.83457352     0.13400
H452        H  0.64264071  0.52219508  0.75881112     0.13200
C453        C  0.03070364  0.16776633  0.78148446     0.85000
C454        C  0.06390718  0.11557805  0.77246681    -0.55200
C455        C  0.04583108  0.06636437  0.78710368     0.07900
C456        C  0.99628856  0.07488964  0.80925208     0.18900
C457        C  0.96632593  0.15955466  0.77691065    -0.56000
C458        C  0.94862353  0.11131473  0.79158675     0.08000
C459        C  0.03633198  0.16102177  0.81509264    -0.55500
C460        C  0.01936822  0.11238043  0.82930643     0.08600
H461        H  0.09890163  0.11881437  0.75633874     0.13100
H462        H  0.98046959  0.03685837  0.82181372    -0.01100
H463        H  0.93601559  0.18872625  0.76413205     0.13400
H464        H  0.05356701  0.19172591  0.82679851     0.13200
C465        C  0.09735756  0.66566439  0.50883947     0.85000
C466        C  0.16036172  0.64527398  0.51623694    -0.55200
C467        C  0.17466037  0.59104116  0.51371952     0.07900
C468        C  0.12264795  0.56073338  0.00473553     0.18900
C469        C  0.08815328  0.65007376  0.97802637    -0.56000
C470        C  0.10092462  0.59546738  0.97566118     0.08000
C471        C  0.06104329  0.62560288  0.52985916    -0.55500
C472        C  0.07279768  0.57046043  0.52770616     0.08600
H473        H  0.19191524  0.67216062  0.52227039     0.13100
H474        H  0.13486376  0.51710452  0.00209503    -0.01100
H475        H  0.07136383  0.67968740  0.95968087     0.13400
H476        H  0.02874763  0.63946928  0.54514912     0.13200
C477        C  0.43539578  0.49652302  0.77956151     0.85000
C478        C  0.47782624  0.53377574  0.78961987    -0.55200
C479        C  0.53356534  0.52086290  0.78225612     0.07900
C480        C  0.54244195  0.46874199  0.76629093     0.18900
C481        C  0.44719073  0.49671612  0.74639533    -0.56000
C482        C  0.50330735  0.48316797  0.73944641     0.08000
C483        C  0.45633336  0.43776747  0.79352463    -0.55500
C484        C  0.51253547  0.42252129  0.78625794     0.08600
H485        H  0.46328734  0.56941720  0.80017391     0.13100
H486        H  0.58757169  0.45584758  0.76033262    -0.01100
H487        H  0.41436075  0.50903583  0.72964269     0.13400
H488        H  0.42855396  0.40876922  0.80572615     0.13200
C489        C  0.60083473  0.92222613  0.56518786     0.85000
C490        C  0.58260326  0.93664068  0.59603653    -0.55200
C491        C  0.58869760  0.99015617  0.59999964     0.07900
C492        C  0.61234311  0.02553204  0.57194628     0.18900
C493        C  0.56424769  0.96458758  0.54375722    -0.56000
C494        C  0.56868104  0.01900500  0.54682666     0.08000
C495        C  0.66310829  0.93982894  0.56093695    -0.55500
C496        C  0.67055591  0.99326353  0.56463479     0.08600
H497        H  0.56825127  0.90724264  0.61411509     0.13100
H498        H  0.61813814  0.06852880  0.57552520    -0.01100
H499        H  0.53647951  0.95148778  0.52775971     0.13400
H500        H  0.69942091  0.91086158  0.55684236     0.13200
C501        C  0.01244059  0.42994069  0.56185329     0.85000
C502        C  0.04854571  0.47065536  0.54128600    -0.55200
C503        C  0.03852082  0.52533868  0.54489189     0.07900
C504        C  0.99014892  0.53408347  0.56884076     0.18900
C505        C  0.02396725  0.44242829  0.59307205    -0.56000
C506        C  0.01253586  0.49649502  0.59700368     0.08000
C507        C  0.94947114  0.45206807  0.55572781    -0.55500
C508        C  0.93670304  0.50578295  0.55971155     0.08600
H509        H  0.07899546  0.45753421  0.52498648     0.13100
H510        H  0.97953021  0.57741882  0.57261956    -0.01100
H511        H  0.04045084  0.41096002  0.61066411     0.13400
H512        H  0.91673190  0.42659051  0.54948650     0.13200
C513        C  0.50207769  0.16250075  0.00887036     0.85000
C514        C  0.43943817  0.14605040  0.51356720    -0.55200
C515        C  0.43101815  0.09252959  0.01058832     0.07900
C516        C  0.48848589  0.05900064  0.00342307     0.18900
C517        C  0.53830025  0.12033038  0.53061769    -0.56000
C518        C  0.53278755  0.06580258  0.52819578     0.08000
C519        C  0.51950572  0.14650926  0.97820981    -0.55500
C520        C  0.51236466  0.09279139  0.97493099     0.08600
H521        H  0.40354953  0.17587874  0.51709583     0.13100
H522        H  0.48163630  0.01592000  0.00043727    -0.01100
H523        H  0.56690384  0.13357742  0.54620022     0.13400
H524        H  0.53434445  0.17502347  0.95984609     0.13200
C525        C  0.08079493  0.90898106  0.78447910     0.85000
C526        C  0.14673159  0.91436711  0.78373502    -0.55200
C527        C  0.16266147  0.96319807  0.76909575     0.07900
C528        C  0.11215387  0.00226126  0.75607468     0.18900
C529        C  0.05442632  0.96080529  0.79717469    -0.56000
C530        C  0.07057558  0.01019519  0.78192123     0.08000
C531        C  0.06429962  0.91948359  0.75174562    -0.55500
C532        C  0.07937583  0.96877923  0.73720658     0.09800
H533        H  0.17891439  0.88363009  0.79392213     0.13100
H534        H  0.12649277  0.04078295  0.74359605    -0.01100
H535        H  0.02464833  0.95761891  0.81587897     0.13400
H536        H  0.04184986  0.89057881  0.74103420     0.13200
O537        O  0.08843103  0.17740216  0.53490116    -0.82400
O538        O  0.09267698  0.93966256  0.50833723    -0.67100
O539        O  0.03881214  0.09019961  0.51513763    -1.13700
C540        C  0.02879837  0.01880362  0.61620414     1.04500
O541        O  0.01486717  0.91683114  0.53416469    -0.80300
O542        O  0.94488380  0.97558214  0.56834863    -0.67800
Ni543      Ni  0.07987624  0.15061257  0.49798316     1.34900
C544        C  0.91914137  0.02333160  0.56222277     0.83300
O545        O  0.07230979  0.03298976  0.96816655    -0.80800
O546        O  0.07142550  0.12653542  0.96081841    -0.91100
C547        C  0.05818821  0.90309145  0.51847071     0.82800
O548        O  0.15795166  0.11902401  0.50024754    -0.69300
O549        O  0.02936893  0.97114358  0.60785880    -0.88600
C550        C  0.18207499  0.07072037  0.50687872     0.83700
C551        C  0.06759633  0.07997664  0.95175086     1.05200
H552        H  0.10031195  0.00209928  0.56080804     0.37000
O553        O  0.06186191  0.00650883  0.55264590    -1.11200
O554        O  0.94718317  0.06668532  0.55494970    -0.67900
Ni555      Ni  0.03067316  0.07970496  0.55699099     1.26300
O556        O  0.15260343  0.02835847  0.51322974    -0.68100
O557        O  0.02686691  0.06477729  0.59907690    -0.80400
C558        C  0.04424685  0.19283385  0.54951393     0.83000
O559        O  0.00787995  0.15740821  0.55887287    -0.67600
Ni560      Ni  0.02310198  0.94536685  0.57073554     1.27400
Ni561      Ni  0.06939750  0.01700719  0.51058229     1.26100
H562        H  0.00047158  0.09551808  0.50680868     0.37600
O563        O  0.39833416  0.06197853  0.79692478    -0.82400
O564        O  0.67122326  0.07866473  0.80183121    -0.67100
O565        O  0.51357265  0.07499501  0.78013988    -1.13700
C566        C  0.55751958  0.88614904  0.77761365     1.04500
O567        O  0.70781545  0.01120322  0.77707563    -0.80300
O568        O  0.62752216  0.00765950  0.73590016    -0.67800
Ni569      Ni  0.45616923  0.11043750  0.80364315     1.34900
C570        C  0.57778105  0.00858468  0.72479000     0.83300
O571        O  0.58650639  0.15728452  0.78651837    -0.80800
O572        O  0.50425728  0.16732171  0.81188522    -0.91100
C573        C  0.71369885  0.05171632  0.79093483     0.82800
O574        O  0.47886330  0.06455396  0.83942954    -0.69300
O575        O  0.60189610  0.90525429  0.76421448    -0.88600
C576        C  0.52818151  0.06477439  0.85098468     0.83700
C577        C  0.54882991  0.18717560  0.79898995     1.05200
H578        H  0.59843397  0.98207909  0.81601708     0.37000
O579        O  0.59409092  0.99839363  0.79560051    -1.11200
O580        O  0.53294903  0.99857390  0.74117294    -0.67900
Ni581      Ni  0.51608365  0.99575079  0.78394125     1.26300
O582        O  0.57370189  0.07447548  0.83488416    -0.68100
O583        O  0.52058684  0.91655346  0.79006027    -0.80400
C584        C  0.39419764  0.02218520  0.78220615     0.83000
O585        O  0.43780164  0.99461530  0.77308971    -0.67600
Ni586      Ni  0.65037061  0.96229714  0.77169705     1.27400
Ni587      Ni  0.59160442  0.07774009  0.79199625     1.26100
H588        H  0.50947246  0.09114571  0.75969681     0.37600
O589        O  0.49067475  0.52452633  0.60085137    -0.82400
O590        O  0.53379834  0.52673976  0.97197185    -0.67100
O591        O  0.55513677  0.49902944  0.55492169    -1.13700
C592        C  0.59163201  0.69239658  0.54028553     1.04500
O593        O  0.61943447  0.56114884  0.96988252    -0.80300
O594        O  0.68044228  0.59619297  0.51262532    -0.67800
Ni595      Ni  0.49951575  0.46244809  0.58004582     1.34900
C596        C  0.69198641  0.57143207  0.53835828     0.83300
O597        O  0.52800565  0.43274512  0.51204605    -0.80800
O598        O  0.50743253  0.39925804  0.55939397    -0.91100
C599        C  0.57715712  0.54466740  0.95714236     0.82800
O600        O  0.42879601  0.48766865  0.55988840    -0.69300
O601        O  0.60237863  0.68512561  0.51340546    -0.88600
C602        C  0.41768367  0.51552207  0.53485516     0.83700
C603        C  0.51647914  0.39269206  0.53232238     1.05200
H604        H  0.51885351  0.60843733  0.51468810     0.37000
O605        O  0.55494761  0.58593030  0.51785027    -1.11200
O606        O  0.65216999  0.55805137  0.55734541    -0.67900
Ni607      Ni  0.56817973  0.57505967  0.55907341     1.26300
O608        O  0.45765053  0.52969371  0.51619280    -0.68100
O609        O  0.57935178  0.65286017  0.56064948    -0.80400
C610        C  0.53335594  0.53549662  0.61522095     0.83000
O611        O  0.57476185  0.55916860  0.60129796    -0.67600
Ni612      Ni  0.61004939  0.62207160  0.49232627     1.27400
Ni613      Ni  0.54096270  0.51051904  0.51387712     1.26100
H614        H  0.59143982  0.47685414  0.55795515     0.37600
O615        O  0.93226464  0.51699371  0.81665616    -0.82400
O616        O  0.16690182  0.58391505  0.80301516    -0.67100
O617        O  0.01137543  0.57110412  0.78710144    -1.13700
C618        C  0.08585652  0.39230590  0.76531123     1.04500
O619        O  0.18031920  0.56036154  0.75876574    -0.80300
O620        O  0.11877994  0.50634517  0.72412060    -0.67800
Ni621      Ni  0.95304219  0.59058674  0.81430412     1.34900
C622        C  0.06602956  0.51808408  0.71736292     0.83300
O623        O  0.07270846  0.65352443  0.80402954    -0.80800
O624        O  0.97587304  0.66527170  0.81126594    -0.91100
C625        C  0.20046034  0.57333810  0.78215819     0.82800
O626        O  0.99204606  0.57276976  0.85122706    -0.69300
O627        O  0.13588653  0.41165316  0.76247489    -0.88600
C628        C  0.04443622  0.55932690  0.85817762     0.83700
C629        C  0.02641043  0.68346676  0.80854483     1.05200
H630        H  0.10900906  0.47946287  0.80669736     0.37000
O631        O  0.10008204  0.50325914  0.78839641    -1.11200
O632        O  0.02618842  0.52028115  0.73700145    -0.67900
Ni633      Ni  0.02314013  0.49490506  0.77929405     1.26300
O634        O  0.08388129  0.55346364  0.83871112    -0.68100
O635        O  0.03923750  0.42048318  0.77135452    -0.80400
C636        C  0.91084487  0.50567854  0.79321991     0.83000
O637        O  0.94380436  0.48858623  0.77358679    -0.67600
Ni638      Ni  0.15853992  0.48638225  0.76069790     1.27400
Ni639      Ni  0.08808504  0.57875338  0.79652309     1.26100
H640        H  0.00318460  0.59463294  0.76862492     0.37600
C641        C  0.28809278  0.04584027  0.77931846    -0.14800
C642        C  0.33567084  0.00789895  0.77590728     0.07300
C643        C  0.32625727  0.95639018  0.76742034    -0.14800
C644        C  0.26978314  0.94205136  0.76411897    -0.14800
C645        C  0.22243385  0.97945088  0.76878653     0.07300
C646        C  0.23204550  0.03182165  0.77563793    -0.14800
H647        H  0.29404260  0.08613696  0.78544441     0.11300
H648        H  0.36225254  0.92661024  0.76437120     0.11300
H649        H  0.26298386  0.90155450  0.75849665     0.11300
H650        H  0.19608501  0.06105470  0.77956886     0.11300
C651        C  0.09818216  0.81315217  0.81538185    -0.14800
C652        C  0.06022244  0.85382999  0.79946278     0.07300
C653        C  0.00436211  0.83912619  0.79347043    -0.14800
C654        C  0.99118886  0.78368499  0.79818182    -0.14800
C655        C  0.03304518  0.74243330  0.80987773     0.07300
C656        C  0.08507614  0.75804399  0.82007395    -0.14800
H657        H  0.13928357  0.82251767  0.82323295     0.11300
H658        H  0.97289859  0.86975537  0.78244636     0.11300
H659        H  0.95017432  0.77277597  0.79066315     0.11300
H660        H  0.11702086  0.72711031  0.83045352     0.11300
C661        C  0.09770520  0.02259772  0.68792480    -0.14800
C662        C  0.06157996  0.98975079  0.70686116     0.07300
C663        C  0.00885466  0.97584546  0.69646239    -0.14800
C664        C  0.99533019  0.98982757  0.66681802    -0.14800
C665        C  0.03352427  0.01919803  0.64762194     0.07300
C666        C  0.08339167  0.03770281  0.65837191    -0.14800
H667        H  0.13872638  0.03361247  0.69530597     0.11300
H668        H  0.97916936  0.95236039  0.71092686     0.11300
H669        H  0.95674665  0.97524897  0.65851071     0.11300
H670        H  0.11364347  0.05954413  0.64344103     0.11300
C671        C  0.52573285  0.26527635  0.99137309    -0.14800
C672        C  0.50735181  0.22332451  0.51350722     0.07300
C673        C  0.49146182  0.23891779  0.54124898    -0.14800
C674        C  0.49415367  0.29337891  0.54690153    -0.14800
C675        C  0.51291417  0.33504776  0.52503046     0.07300
C676        C  0.52834074  0.32019453  0.49707651    -0.14800
H677        H  0.53820305  0.25686596  0.96948777     0.11300
H678        H  0.47662274  0.20851389  0.55879126     0.11300
H679        H  0.48132672  0.30269867  0.56871829     0.11300
H680        H  0.54284049  0.35092108  0.97961949     0.11300
C681        C  0.48040986  0.04623396  0.93247574    -0.14800
C682        C  0.52267623  0.07313337  0.94533186     0.07300
C683        C  0.57109165  0.08918584  0.92779996    -0.14800
C684        C  0.57524208  0.08223077  0.89776466    -0.14800
C685        C  0.53068878  0.05961579  0.88414796     0.07300
C686        C  0.48409764  0.03999209  0.90221836    -0.14800
H687        H  0.44242295  0.03368820  0.94521973     0.11300
H688        H  0.60463605  0.10974926  0.93703948     0.11300
H689        H  0.61155463  0.09808546  0.88474847     0.11300
H690        H  0.44889206  0.02225977  0.89261484     0.11300
C691        C  0.34271256  0.03905113  0.52881285    -0.14800
C692        C  0.37011152  0.07618499  0.50739468     0.07300
C693        C  0.33583018  0.10567189  0.98460502    -0.14800
C694        C  0.27590431  0.10088932  0.98397015    -0.14800
C695        C  0.24747220  0.06614676  0.50601630     0.07300
C696        C  0.28201494  0.03380422  0.52803438    -0.14800
H697        H  0.36758963  0.01634142  0.54695972     0.11300
H698        H  0.35523180  0.13474809  0.96786194     0.11300
H699        H  0.25114612  0.12624256  0.96657340     0.11300
H700        H  0.26173519  0.00703396  0.54554267     0.11300
C701        C  0.08226961  0.51444716  0.63461990    -0.14800
C702        C  0.02466955  0.51522697  0.62573676     0.07300
C703        C  0.98001117  0.52452100  0.64628517    -0.14800
C704        C  0.99298986  0.52945620  0.67577158    -0.14800
C705        C  0.05096997  0.52528422  0.68520204     0.07300
C706        C  0.09527258  0.51985776  0.66380771    -0.14800
H707        H  0.11740563  0.50680507  0.61925027     0.11300
H708        H  0.93520307  0.52450831  0.64001101     0.11300
H709        H  0.95766945  0.53335484  0.69151447     0.11300
H710        H  0.14040012  0.51650027  0.66997168     0.11300
C711        C  0.83185331  0.50499543  0.57581301    -0.14800
C712        C  0.87517253  0.52993789  0.55749500     0.07300
C713        C  0.85781029  0.57086525  0.53410844    -0.14800
C714        C  0.79857314  0.58471769  0.52836295    -0.14800
C715        C  0.75492042  0.55844035  0.54603440     0.07300
C716        C  0.77258647  0.51947203  0.57040073    -0.14800
H717        H  0.84403042  0.47275913  0.59381870     0.11300
H718        H  0.89002972  0.59009012  0.51935103     0.11300
H719        H  0.78695229  0.61544857  0.50959405     0.11300
H720        H  0.74064483  0.49858622  0.58462113     0.11300
C721        C  0.98382198  0.33010625  0.57363085    -0.14800
C722        C  0.02258420  0.36768164  0.55944237     0.07300
C723        C  0.07019383  0.34561705  0.54395303    -0.14800
C724        C  0.07705796  0.28914363  0.54150922    -0.14800
C725        C  0.03688299  0.25218976  0.55445353     0.07300
C726        C  0.99033380  0.27338786  0.57083081    -0.14800
H727        H  0.94753954  0.34494914  0.58652999     0.11300
H728        H  0.10324044  0.37104882  0.53388877     0.11300
H729        H  0.11410942  0.27453158  0.52904244     0.11300
H730        H  0.95881562  0.24629147  0.58132789     0.11300
C731        C  0.52847283  0.99452951  0.67808120    -0.14800
C732        C  0.57371818  0.01602015  0.69174485     0.07300
C733        C  0.61940593  0.03725718  0.67362810    -0.14800
C734        C  0.62173677  0.03356609  0.64311629    -0.14800
C735        C  0.57895036  0.00774822  0.63004721     0.07300
C736        C  0.53127909  0.99010746  0.64772954    -0.14800
H737        H  0.49278561  0.97758853  0.69119689     0.11300
H738        H  0.65499215  0.05425510  0.68332921     0.11300
H739        H  0.65920223  0.04711407  0.63024421     0.11300
H740        H  0.49745004  0.97016754  0.63831734     0.11300
C741        C  0.57807086  0.76410897  0.57559441    -0.14800
C742        C  0.59372188  0.75019756  0.54749783     0.07300
C743        C  0.61119738  0.79271067  0.52576169    -0.14800
C744        C  0.61275068  0.84712135  0.53184043    -0.14800
C745        C  0.59678222  0.86162527  0.55983853     0.07300
C746        C  0.57946120  0.81877701  0.58170035    -0.14800
H747        H  0.56446855  0.73271579  0.59294268     0.11300
H748        H  0.62392807  0.78406008  0.50381292     0.11300
H749        H  0.62675909  0.87829836  0.51447423     0.11300
H750        H  0.56703243  0.82615893  0.60374558     0.11300
C751        C  0.75444980  0.05428641  0.54767506    -0.14800
C752        C  0.73129685  0.01103893  0.56711940     0.07300
C753        C  0.76961466  0.97789984  0.58679315    -0.14800
C754        C  0.82920901  0.98479035  0.58582367    -0.14800
C755        C  0.85366897  0.02524119  0.56512829     0.07300
C756        C  0.81502442  0.06144197  0.54673195    -0.14800
H757        H  0.72631840  0.08048481  0.53209303     0.11300
H758        H  0.75361707  0.94455082  0.60223069     0.11300
H759        H  0.85678971  0.95662531  0.60084463     0.11300
H760        H  0.83184084  0.09313741  0.53056956     0.11300
C761        C  0.56659185  0.33782359  0.77037874    -0.14800
C762        C  0.53634411  0.36374384  0.79243612     0.07300
C763        C  0.52079258  0.33107226  0.81879079    -0.14800
C764        C  0.52952466  0.27352684  0.82179563    -0.14800
C765        C  0.55467649  0.24714972  0.79867223     0.07300
C766        C  0.57587011  0.27987118  0.77352068    -0.14800
H767        H  0.57887752  0.36181308  0.74973652     0.11300
H768        H  0.49854128  0.34987757  0.83642759     0.11300
H769        H  0.51346050  0.24941236  0.84160909     0.11300
H770        H  0.59518603  0.26063894  0.75530321     0.11300
C771        C  0.35753590  0.57193683  0.76973497    -0.14800
C772        C  0.37494252  0.51932002  0.78506356     0.07300
C773        C  0.33568035  0.49086097  0.80418568    -0.14800
C774        C  0.27857709  0.51229292  0.80549751    -0.14800
C775        C  0.26088645  0.56167966  0.78766811     0.07300
C776        C  0.30038700  0.59249377  0.77054965    -0.14800
H777        H  0.38773792  0.59553049  0.75562057     0.11300
H778        H  0.34768748  0.45169488  0.81733369     0.11300
H779        H  0.24729167  0.48836197  0.81865363     0.11300
H780        H  0.28643095  0.63060104  0.75665971     0.11300
C781        C  0.56047366  0.52831030  0.69712882    -0.14800
C782        C  0.52286200  0.48797279  0.70850737     0.07300
C783        C  0.49449611  0.45981627  0.68927909    -0.14800
C784        C  0.50031114  0.47422395  0.65894967    -0.14800
C785        C  0.53451673  0.51724150  0.64726746     0.07300
C786        C  0.56653867  0.54280389  0.66646744    -0.14800
H787        H  0.58179548  0.55109903  0.71184410     0.11300
H788        H  0.46518704  0.42879319  0.69781411     0.11300
H789        H  0.47620053  0.45291312  0.64460789     0.11300
H790        H  0.59344003  0.57579800  0.65787879     0.11300
C791        C  0.25168247  0.51960169  0.53659571    -0.14800
C792        C  0.23636425  0.56749992  0.51685005     0.07300
C793        C  0.28114013  0.59640909  0.00185424    -0.14800
C794        C  0.33971799  0.57864410  0.00687117    -0.14800
C795        C  0.35534125  0.53212423  0.52759176     0.07300
C796        C  0.31042391  0.50248994  0.54216137    -0.14800
H797        H  0.21827931  0.49674615  0.54861323     0.11300
H798        H  0.27067893  0.63350429  0.98645753     0.11300
H799        H  0.37282608  0.60246698  0.99524818     0.11300
H800        H  0.32073515  0.46619440  0.55813186     0.11300
C801        C  0.03015252  0.57274457  0.93988868    -0.14800
C802        C  0.08804105  0.57300035  0.94810714     0.07300
C803        C  0.13210930  0.56040044  0.92787062    -0.14800
C804        C  0.11824444  0.55150718  0.89911227    -0.14800
C805        C  0.05999467  0.55501476  0.89013969     0.07300
C806        C  0.01626803  0.56354139  0.91141837    -0.14800
H807        H  0.99549378  0.58262994  0.95510149     0.11300
H808        H  0.17712331  0.56092290  0.93366690     0.11300
H809        H  0.15313375  0.54532931  0.88340317     0.11300
H810        H  0.97098367  0.56652123  0.90557113     0.11300
C811        C  0.03440915  0.75033060  0.52267542    -0.14800
C812        C  0.08504711  0.72831074  0.50957923     0.07300
C813        C  0.12435468  0.76619968  0.99621466    -0.14800
C814        C  0.11577721  0.82317658  0.99825727    -0.14800
C815        C  0.06670203  0.84411467  0.51300003     0.07300
C816        C  0.02560401  0.80692739  0.52441432    -0.14800
H817        H  0.00064774  0.72457002  0.53151192     0.11300
H818        H  0.16276322  0.75144777  0.98479970     0.11300
H819        H  0.14800360  0.85052539  0.98882253     0.11300
H820        H  0.98642085  0.82140848  0.53530308     0.11300
C821        C  0.01721344  0.26477701  0.75141647    -0.14800
C822        C  0.05313557  0.22288503  0.76778534     0.07300
C823        C  0.10774608  0.23663850  0.77640074    -0.14800
C824        C  0.12093932  0.29197298  0.77377654    -0.14800
C825        C  0.08028786  0.33408270  0.76180181     0.07300
C826        C  0.03022218  0.31983186  0.74896944    -0.14800
H827        H  0.97717263  0.25663820  0.74195432     0.11300
H828        H  0.13745925  0.20517041  0.78813551     0.11300
H829        H  0.16051575  0.30197925  0.78327490     0.11300
H830        H  0.99947355  0.35170068  0.73836173     0.11300
C831        C  0.87666201  0.04257710  0.78934811    -0.14800
C832        C  0.88814574  0.09678041  0.79198213     0.07300
C833        C  0.84199586  0.13623799  0.79565577    -0.14800
C834        C  0.78479580  0.12145776  0.79654334    -0.14800
C835        C  0.77330103  0.06727674  0.79334997     0.07300
C836        C  0.81981772  0.02799537  0.78989041    -0.14800
H837        H  0.91165183  0.01171081  0.78632747     0.11300
H838        H  0.85024341  0.17826172  0.79808425     0.11300
H839        H  0.74970155  0.15253194  0.79892819     0.11300
H840        H  0.81226497  0.98586069  0.78731734     0.11300
C841        C  0.00314808  0.13681948  0.87898898    -0.14800
C842        C  0.02483503  0.09809788  0.86112805     0.07300
C843        C  0.05754836  0.04995738  0.87331999    -0.14800
C844        C  0.07116500  0.04230629  0.90334932    -0.14800
C845        C  0.05215076  0.08311679  0.92079575     0.07300
C846        C  0.01667167  0.12941694  0.90856492    -0.14800
H847        H  0.97739852  0.17382168  0.86975501     0.11300
H848        H  0.07478825  0.02004308  0.85938586     0.11300
H849        H  0.09807794  0.00612762  0.91258519     0.11300
H850        H  0.99999798  0.16063888  0.92184445     0.11300
C851        C  0.54826673  0.73597524  0.80836384    -0.14800
C852        C  0.57163745  0.71069698  0.78449581     0.07300
C853        C  0.57847931  0.74324135  0.75693051    -0.14800
C854        C  0.56869320  0.80058235  0.75409183    -0.14800
C855        C  0.55085955  0.82650689  0.77862863     0.07300
C856        C  0.53769783  0.79372708  0.80540763    -0.14800
H857        H  0.54305281  0.71181294  0.82986972     0.11300
H858        H  0.59560394  0.72459400  0.73806392     0.11300
H859        H  0.57871697  0.82497777  0.73317232     0.11300
H860        H  0.52437579  0.81293875  0.82469516     0.11300
C861        C  0.78054446  0.60367884  0.78345942    -0.14800
C862        C  0.73866622  0.56837388  0.77769232     0.07300
C863        C  0.75647752  0.51361694  0.77305812    -0.14800
C864        C  0.81393808  0.49389564  0.77624239    -0.14800
C865        C  0.85340320  0.52784765  0.78514331     0.07300
C866        C  0.83759512  0.58338779  0.78729470    -0.14800
H867        H  0.76845565  0.64522131  0.78809172     0.11300
H868        H  0.72626657  0.48366112  0.76994885     0.11300
H869        H  0.82656180  0.45101822  0.77422953     0.11300
H870        H  0.86867058  0.61043585  0.79334562     0.11300
C871        C  0.63847557  0.52846323  0.88228264    -0.14800
C872        C  0.60269167  0.56738754  0.86386812     0.07300
C873        C  0.55330538  0.59288615  0.87646346    -0.14800
C874        C  0.54201380  0.58193376  0.90688221    -0.14800
C875        C  0.58040970  0.54613922  0.92510526     0.07300
C876        C  0.62804831  0.51886340  0.91262211    -0.14800
H877        H  0.67534952  0.50575488  0.87356090     0.11300
H878        H  0.52464161  0.62309227  0.86331256     0.11300
H879        H  0.50547023  0.60401418  0.91641702     0.11300
H880        H  0.65808815  0.49114207  0.92652109     0.11300
loop_ 
_geom_bond_atom_site_label_1 
_geom_bond_atom_site_label_2 
_geom_bond_distance 
_geom_bond_site_symmetry_2 
_ccdc_geom_bond_type 
C1            C2   1.524       .  S
C1            C7   1.518       .  S
C1            C5   1.534       .  S
C1          C422   1.496       .  S
C2            H9   1.086       .  S
C2            C3   1.365       .  D
C3            C4   1.549       .  S
C3          C412   1.483       .  S
C4            C8   1.553       .  S
C4            C6   1.537       .  S
C4           H10   1.102       .  S
C5           H11   1.085       .  S
C5            C6   1.364       .  D
C6          C432   1.492       .  S
C7           H12   1.079       .  S
C7            C8   1.351       .  D
C8           C39   1.470       .  S
C13          C14   1.540       .  S
C13          C19   1.528       .  S
C13          C17   1.543   1_455  S
C13         C382   1.530       .  S
C14          H21   1.081       .  S
C14          C15   1.384       .  D
C15          C16   1.532   1_455  S
C15          C90   1.496       .  S
C16          C20   1.519   1_655  S
C16          C18   1.534       .  S
C16          H22   1.106       .  S
C17          H23   1.081       .  S
C17          C18   1.361       .  D
C18         C392   1.471       .  S
C19          H24   1.087       .  S
C19          C20   1.356       .  D
C20         C402   1.453       .  S
C25          C26   1.534       .  S
C25          C31   1.554       .  S
C25         C469   1.533   1_554  S
C25         C372   1.544       .  S
C26          H33   1.086       .  S
C26          C27   1.364       .  D
C27         C468   1.556       .  S
C27         C352   1.500       .  S
C28          C30   1.546       .  S
C28         C467   1.556       .  S
C28         C472   1.567       .  S
C28          H34   1.106       .  S
C29         C465   1.533       .  S
C29          H35   1.087       .  S
C29          C30   1.366       .  D
C30         C362   1.488       .  S
C31          H36   1.078       .  S
C31          C32   1.374       .  D
C32         C468   1.567       .  S
C32          C63   1.527       .  S
C37          C38   1.513       .  S
C37          C43   1.537       .  S
C37          C41   1.532       .  S
C37         C332   1.494       .  S
C38          H45   1.083       .  S
C38          C39   1.350       .  D
C39          C40   1.555       .  S
C40          C44   1.547       .  S
C40          C42   1.527       .  S
C40          H46   1.106       .  S
C41          H47   1.087       .  S
C41          C42   1.356       .  D
C42         C342   1.465       .  S
C43          H48   1.082       .  S
C43          C44   1.371       .  D
C44         C322   1.492       .  S
C49          C50   1.541       .  S
C49          C55   1.537       .  S
C49          C53   1.540       .  S
C49         C305   1.548       .  S
C50          H57   1.081       .  S
C50          C51   1.367       .  D
C51          C52   1.556   1_565  S
C51         C295   1.502   1_565  S
C52          C56   1.561   1_545  S
C52          C54   1.581       .  S
C52          H58   1.107       .  S
C53          H59   1.083       .  S
C53          C54   1.372   1_565  D
C54          C78   1.530       .  S
C55          H60   1.087       .  S
C55          C56   1.368       .  D
C56         C312   1.516   1_565  S
C61          C62   1.551       .  S
C61          C67   1.533   1_455  S
C61          C65   1.534       .  S
C61         C282   1.544       .  S
C62          H69   1.077       .  S
C62          C63   1.374       .  D
C63          C64   1.570   1_455  S
C64          C68   1.558       .  S
C64          C66   1.548   1_655  S
C64          H70   1.107       .  S
C65          H71   1.086       .  S
C65          C66   1.366       .  D
C66         C262   1.490       .  S
C67          H72   1.087       .  S
C67          C68   1.362       .  D
C68         C272   1.499       .  S
C73          C79   1.542       .  S
C73         C514   1.537       .  S
C73         C517   1.541       .  S
C73         C672   1.549       .  S
C74         C513   1.537       .  S
C74          H81   1.087       .  S
C74         C515   1.367       .  D
C75          C76   1.560       .  S
C75         C514   1.367       .  D
C75         C692   1.512       .  S
C76          C80   1.555       .  S
C76         C518   1.581       .  S
C76          H82   1.107       .  S
C77         C513   1.541       .  S
C77          H83   1.083       .  S
C77          C78   1.372       .  D
C78         C516   1.581       .  S
C79          H84   1.081       .  S
C79          C80   1.368       .  D
C80         C242   1.505       .  S
C85          C86   1.542       .  S
C85          C91   1.534       .  S
C85          C89   1.545       .  S
C85         C212   1.532       .  S
C86          H93   1.081       .  S
C86          C87   1.359       .  D
C87          C88   1.528   1_565  S
C87         C205   1.469       .  S
C88          C92   1.524   1_545  S
C88          C90   1.529       .  S
C88          H94   1.102       .  S
C89          H95   1.082       .  S
C89          C90   1.382   1_565  D
C91          H96   1.086       .  S
C91          C92   1.360       .  D
C92         C222   1.466       .  S
O97        Ni103   1.914   1_554  S
O97         C118   1.269       .  A
O98        Ni121   1.945   1_565  S
O98         C107   1.277       .  A
O99        Ni103   1.888   1_554  S
O99        Ni121   1.913       .  S
O99        Ni115   1.899       .  S
O99         H122   0.967       .  S
C100        O117   1.276       .  A
C100        O109   1.277   1_545  A
C100        C225   1.443       .  S
O101       Ni120   1.919       .  S
O101        C107   1.270       .  A
O102       Ni120   1.901   1_655  S
O102        C104   1.268   1_565  A
Ni103       O108   1.909   1_556  S
Ni103       O546   1.893       .  S
C104        O114   1.288       .  A
C104        C315   1.516       .  S
O105       Ni561   1.922       .  S
O105        C111   1.281       .  A
O106       Ni543   1.893       .  S
O106        C111   1.277       .  A
C107        C375   1.498       .  S
O108        C110   1.268       .  A
O109       Ni120   1.903       .  S
C110        O116   1.282       .  A
C110        C255   1.509       .  S
C111        C405   1.457       .  S
H112        O113   0.966       .  S
O113       Ni121   1.908       .  S
O113       Ni115   1.915       .  S
O113       Ni120   1.886   1_545  S
O114       Ni115   1.990   1_655  S
Ni115       O119   1.948       .  S
Ni115       O117   1.907       .  S
O116       Ni121   1.977       .  S
C118        O119   1.280       .  A
C118        C285   1.499       .  S
Ni121       O545   1.922   1_554  S
O123       Ni129   1.916       .  S
O123        C144   1.270       .  A
O124       Ni147   1.911       .  S
O124        C133   1.271       .  A
O125       Ni129   1.919       .  S
O125       Ni147   1.908       .  S
O125       Ni141   1.921   1_545  S
O125        H148   0.965       .  S
C126        O143   1.266       .  A
C126        O135   1.270       .  A
C126        C415   1.475       .  S
O127       Ni146   1.901   1_545  S
O127        C133   1.268       .  A
O128       Ni146   1.905   1_545  S
O128        C130   1.267       .  A
Ni129       O132   1.933       .  S
Ni129       O134   1.909       .  S
C130        O140   1.283   1_545  A
C130        C292   1.499       .  S
O131       Ni147   1.924       .  S
O131        C137   1.270       .  A
O132        C137   1.271       .  A
C133        C395   1.471       .  S
O134        C136   1.271       .  A
O135       Ni146   1.931       .  S
C136        O142   1.288       .  A
C136        C245   1.504       .  S
C137        C325   1.484       .  S
H138        O139   0.966       .  S
O139       Ni147   1.924   1_565  S
O139       Ni141   1.904       .  S
O139       Ni146   1.921       .  S
O140       Ni141   1.975       .  S
Ni141       O145   1.894       .  S
Ni141       O143   1.916       .  S
O142       Ni147   1.984       .  S
C144        O145   1.265   1_545  A
C144        C202   1.471       .  S
O149       Ni155   1.899       .  S
O149        C170   1.266       .  A
O150       Ni613   1.908       .  S
O150        C159   1.269       .  A
O151       Ni155   1.896       .  S
O151       Ni173   1.889       .  S
O151       Ni167   1.946       .  S
O151        H174   0.966       .  S
C152        O169   1.289       .  A
C152        O161   1.281       .  A
C152        C302   1.503       .  S
O153       Ni612   1.922       .  S
O153        C159   1.271       .  A
O154       Ni172   1.915   1_554  S
O154        C156   1.269       .  A
Ni155       O158   1.918       .  S
Ni155       O160   1.915       .  S
C156        O166   1.279       .  A
C156        C275   1.506       .  S
O157       Ni173   1.966       .  S
O157        C163   1.290       .  A
O158        C163   1.279       .  A
C159        C435   1.459       .  S
O160        C162   1.268       .  A
O161       Ni172   1.927   1_554  S
C162        O168   1.277       .  A
C162        C355   1.501       .  S
C163        C235   1.505       .  S
H164        O165   0.967       .  S
O165       Ni173   1.935       .  S
O165       Ni167   1.893       .  S
O165       Ni172   1.893   1_554  S
O166       Ni167   1.958       .  S
Ni167       O171   1.921       .  S
Ni167       O169   1.955       .  S
O168       Ni173   1.953       .  S
C170        O171   1.270       .  A
C170        C345   1.469       .  S
Ni172       O593   1.922       .  S
Ni173       O590   1.908   1_554  S
O175       Ni181   1.890       .  S
O175        C196   1.265       .  A
O176       Ni199   1.873       .  S
O176        C185   1.257       .  A
O177       Ni181   1.891   1_455  S
O177       Ni199   1.868       .  S
O177       Ni193   1.946       .  S
O177        H200   0.967       .  S
C178        O195   1.280       .  A
C178        O187   1.282       .  A
C178        C385   1.473       .  S
O179       Ni198   1.909       .  S
O179        C185   1.267       .  A
O180       Ni198   1.912       .  S
O180        C182   1.268       .  A
Ni181       O184   1.930       .  S
Ni181       O186   1.912       .  S
C182        O192   1.274       .  A
C182        C265   1.501       .  S
O183       Ni199   1.915       .  S
O183        C189   1.280       .  A
O184        C189   1.281   1_655  A
C185        C335   1.427       .  S
O186        C188   1.268   1_655  A
O187       Ni198   1.934       .  S
C188        O194   1.273       .  A
C188        C365   1.500       .  S
C189        C215   1.475       .  S
H190        O191   0.966       .  S
O191       Ni199   1.935       .  S
O191       Ni193   1.872       .  S
O191       Ni198   1.891       .  S
O192       Ni193   1.946       .  S
Ni193       O197   1.883   1_455  S
Ni193       O195   1.915       .  S
O194       Ni199   1.942       .  S
C196        O197   1.258       .  A
C196        C425   1.433       .  S
C201        C202   1.405       .  A
C201        C206   1.388       .  A
C201        H207   1.083       .  S
C202        C203   1.405   1_545  A
C203        C204   1.397       .  A
C203        H208   1.083       .  S
C204        C205   1.404       .  A
C204        H209   1.083       .  S
C205        C206   1.398   1_565  A
C206        H210   1.083       .  S
C211        C212   1.409       .  A
C211        C216   1.393       .  A
C211        H217   1.078       .  S
C212        C213   1.413       .  A
C213        C214   1.401   1_455  A
C213        H218   1.083   1_455  S
C214        C215   1.402   1_655  A
C214        H219   1.083       .  S
C215        C216   1.402       .  A
C216        H220   1.084       .  S
C221        C222   1.403   1_545  A
C221        C226   1.390       .  A
C221        H227   1.082       .  S
C222        C223   1.404       .  A
C223        C224   1.387   1_455  A
C223        H228   1.083   1_455  S
C224        C225   1.397   1_665  A
C224        H229   1.084       .  S
C225        C226   1.397       .  A
C226        H230   1.084       .  S
C231        C672   1.419       .  A
C231        C676   1.412       .  A
C231        H237   1.077       .  S
C232        C513   1.549       .  S
C232        C233   1.406       .  A
C232        C671   1.419   1_554  A
C233        C234   1.401       .  A
C233        H238   1.083       .  S
C234        C235   1.411       .  A
C234        H239   1.083       .  S
C235        C236   1.406   1_554  A
C236        C671   1.412       .  A
C236        H680   1.083       .  S
H240        C676   1.083       .  S
C241        C242   1.406       .  A
C241        C246   1.411       .  A
C241        H247   1.083       .  S
C242        C243   1.410       .  A
C243        C244   1.406       .  A
C243        H248   1.083       .  S
C244        C245   1.406       .  A
C244        H249   1.083       .  S
C245        C246   1.415       .  A
C246        H250   1.083       .  S
C251        C252   1.413       .  A
C251        C256   1.423       .  A
C251        H257   1.083       .  S
C252        C515   1.512       .  S
C252        C693   1.405   1_554  A
C253        C254   1.403       .  A
C253        C692   1.405       .  A
C253        H258   1.083       .  S
C254        C695   1.409       .  A
C254        H259   1.083       .  S
C255        C256   1.413       .  A
C255        C694   1.409   1_554  A
C256        H260   1.083       .  S
C261        C262   1.401       .  A
C261        C266   1.401       .  A
C261        H267   1.084       .  S
C262        C263   1.406   1_455  A
C263        C264   1.411       .  A
C263        H268   1.083       .  S
C264        C265   1.412   1_655  A
C264        H269   1.083       .  S
C265        C266   1.411       .  A
C266        H270   1.083       .  S
C271        C272   1.411       .  A
C271        C276   1.409       .  A
C271        H277   1.083       .  S
C272        C273   1.402       .  A
C273        C274   1.409       .  A
C273        H278   1.083       .  S
C274        C275   1.415       .  A
C274        H279   1.083       .  S
C275        C276   1.407       .  A
C276        H280   1.083       .  S
C281        C282   1.416   1_655  A
C281        C286   1.409       .  A
C281        H287   1.083       .  S
C282        C283   1.408       .  A
C283        C284   1.400       .  A
C283        H288   1.078       .  S
C284        C285   1.410       .  A
C284        H289   1.083       .  S
C285        C286   1.404   1_455  A
C286        H290   1.083       .  S
C291        C292   1.406   1_565  A
C291        C296   1.405       .  A
C291        H297   1.083       .  S
C292        C293   1.413       .  A
C293        C294   1.409       .  A
C293        H298   1.083       .  S
C294        C295   1.404       .  A
C294        H299   1.083       .  S
C295        C296   1.410   1_545  A
C296        H300   1.083       .  S
C301        C302   1.405       .  A
C301        C306   1.409       .  A
C301        H307   1.083       .  S
C302        C303   1.410       .  A
C303        C304   1.403       .  A
C303        H308   1.083       .  S
C304        C305   1.408       .  A
C304        H309   1.083       .  S
C305        C306   1.418       .  A
C306        H310   1.076       .  S
C311        C312   1.414       .  A
C311        C316   1.426       .  A
C311        H317   1.082       .  S
C312        C313   1.405   1_545  A
C313        C314   1.402       .  A
C313        H318   1.084       .  S
C314        C315   1.412   1_565  A
C314        H319   1.084       .  S
C315        C316   1.413       .  A
C316        H320   1.082       .  S
C321        C322   1.408       .  A
C321        C326   1.407       .  A
C321        H327   1.083       .  S
C322        C323   1.404       .  A
C323        C324   1.396       .  A
C323        H328   1.083       .  S
C324        C325   1.405       .  A
C324        H329   1.083       .  S
C325        C326   1.406       .  A
C326        H330   1.083       .  S
C331        C332   1.412       .  A
C331        C336   1.380       .  A
C331        H337   1.084       .  S
C332        C333   1.401       .  A
C333        C334   1.387       .  A
C333        H338   1.078       .  S
C334        C335   1.399       .  A
C334        H339   1.084       .  S
C335        C336   1.387       .  A
C336        H340   1.084       .  S
C341        C342   1.405       .  A
C341        C346   1.402       .  A
C341        H347   1.083       .  S
C342        C343   1.396       .  A
C343        C344   1.387       .  A
C343        H348   1.084       .  S
C344        C345   1.405       .  A
C344        H349   1.083       .  S
C345        C346   1.404       .  A
C346        H350   1.083       .  S
C351        C352   1.403       .  A
C351        C356   1.410       .  A
C351        H357   1.083       .  S
C352        C793   1.410       .  A
C353        C354   1.406       .  A
C353        C792   1.410       .  A
C353        H358   1.083       .  S
C354        C795   1.405       .  A
C354        H359   1.083       .  S
C355        C356   1.414       .  A
C355        C794   1.405       .  A
C356        H360   1.083       .  S
C361        C362   1.402       .  A
C361        C366   1.400       .  A
C361        H367   1.084   1_455  S
C362        C363   1.405       .  A
C363        C364   1.410       .  A
C363        H368   1.083       .  S
C364        C365   1.412       .  A
C364        H369   1.083       .  S
C365        C366   1.410       .  A
C366        H370   1.083   1_455  S
C371        C372   1.407       .  A
C371        C376   1.399       .  A
C371        H377   1.078       .  S
C372        C813   1.417   1_554  A
C373        C374   1.410       .  A
C373        C812   1.417       .  A
C373        H378   1.083       .  S
C374        C815   1.405       .  A
C374        H379   1.083       .  S
C375        C376   1.409       .  A
C375        C814   1.405   1_554  A
C376        H380   1.083   1_455  S
C381        C382   1.409       .  A
C381        C386   1.394       .  A
C381        H387   1.077   1_455  S
C382        C383   1.413       .  A
C383        C384   1.401       .  A
C383        H388   1.083       .  S
C384        C385   1.401       .  A
C384        H389   1.083       .  S
C385        C386   1.402       .  A
C386        H390   1.084   1_455  S
C391        C392   1.397       .  A
C391        C396   1.389       .  A
C391        H397   1.084       .  S
C392        C393   1.407       .  A
C393        C394   1.398       .  A
C393        H398   1.083       .  S
C394        C395   1.402       .  A
C394        H399   1.083       .  S
C395        C396   1.408       .  A
C396        H400   1.083   1_545  S
C401        C402   1.393       .  A
C401        C406   1.378       .  A
C401        H407   1.084   1_455  S
C402        C403   1.404       .  A
C403        C404   1.399       .  A
C403        H408   1.084       .  S
C404        C405   1.402       .  A
C404        H409   1.083       .  S
C405        C406   1.404       .  A
C406        H410   1.084   1_455  S
C411        C412   1.404       .  A
C411        C416   1.405       .  A
C411        H417   1.082       .  S
C412        C413   1.405       .  A
C413        C414   1.393       .  A
C413        H418   1.083       .  S
C414        C415   1.402       .  A
C414        H419   1.084       .  S
C415        C416   1.406       .  A
C416        H420   1.083       .  S
C421        C422   1.402       .  A
C421        C426   1.381       .  A
C421        H427   1.082       .  S
C422        C423   1.415       .  A
C423        C424   1.383       .  A
C423        H428   1.078       .  S
C424        C425   1.388       .  A
C424        H429   1.084       .  S
C425        C426   1.397       .  A
C426        H430   1.081       .  S
C431        C432   1.410       .  A
C431        C436   1.391       .  A
C431        H437   1.081       .  S
C432        C433   1.409       .  A
C433        C434   1.400       .  A
C433        H438   1.080       .  S
C434        C435   1.400       .  A
C434        H439   1.083       .  S
C435        C436   1.396       .  A
C436        H440   1.084       .  S
C441        C442   1.524       .  S
C441        C447   1.518       .  S
C441        C445   1.534       .  S
C441        C862   1.496       .  S
C442        H449   1.086       .  S
C442        C443   1.365       .  D
C443        C444   1.549       .  S
C443        C852   1.483       .  S
C444        C448   1.553       .  S
C444        C446   1.537       .  S
C444        H450   1.102       .  S
C445        H451   1.085       .  S
C445        C446   1.364       .  D
C446        C872   1.492       .  S
C447        H452   1.079       .  S
C447        C448   1.351       .  D
C448        C479   1.470       .  S
C453        C454   1.540       .  S
C453        C459   1.528       .  S
C453        C457   1.543   1_455  S
C453        C822   1.530       .  S
C454        H461   1.081       .  S
C454        C455   1.384       .  D
C455        C456   1.532   1_455  S
C455        C530   1.496       .  S
C456        C460   1.519   1_655  S
C456        C458   1.534       .  S
C456        H462   1.106       .  S
C457        H463   1.081       .  S
C457        C458   1.361       .  D
C458        C832   1.471       .  S
C459        H464   1.087       .  S
C459        C460   1.356       .  D
C460        C842   1.453       .  S
C465        C466   1.534       .  S
C465        C471   1.554       .  S
C465        C812   1.544       .  S
C466        H473   1.086       .  S
C466        C467   1.364       .  D
C467        C792   1.500       .  S
C468        C470   1.546   1_554  S
C468        H474   1.106       .  S
C469        H475   1.087       .  S
C469        C470   1.366       .  D
C470        C802   1.488       .  S
C471        H476   1.078       .  S
C471        C472   1.374       .  D
C472        C503   1.527       .  S
C477        C478   1.513       .  S
C477        C483   1.537       .  S
C477        C481   1.532       .  S
C477        C772   1.494       .  S
C478        H485   1.083       .  S
C478        C479   1.350       .  D
C479        C480   1.555       .  S
C480        C484   1.547       .  S
C480        C482   1.527       .  S
C480        H486   1.106       .  S
C481        H487   1.087       .  S
C481        C482   1.356       .  D
C482        C782   1.465       .  S
C483        H488   1.082       .  S
C483        C484   1.371       .  D
C484        C762   1.492       .  S
C489        C490   1.541       .  S
C489        C495   1.537       .  S
C489        C493   1.540       .  S
C489        C745   1.548       .  S
C490        H497   1.081       .  S
C490        C491   1.367       .  D
C491        C492   1.556   1_565  S
C491        C735   1.502   1_565  S
C492        C496   1.561   1_545  S
C492        C494   1.581       .  S
C492        H498   1.107       .  S
C493        H499   1.083       .  S
C493        C494   1.372   1_565  D
C494        C518   1.530       .  S
C495        H500   1.087       .  S
C495        C496   1.368       .  D
C496        C752   1.516   1_565  S
C501        C502   1.551       .  S
C501        C507   1.533   1_455  S
C501        C505   1.534       .  S
C501        C722   1.544       .  S
C502        H509   1.077       .  S
C502        C503   1.374       .  D
C503        C504   1.570   1_455  S
C504        C508   1.558       .  S
C504        C506   1.548   1_655  S
C504        H510   1.107       .  S
C505        H511   1.086       .  S
C505        C506   1.366       .  D
C506        C702   1.490       .  S
C507        H512   1.087       .  S
C507        C508   1.362       .  D
C508        C712   1.499       .  S
C513        C519   1.542   1_554  S
C514        H521   1.087       .  S
C515        C516   1.560       .  S
C516        C520   1.555   1_554  S
C516        H522   1.107       .  S
C517        H523   1.083       .  S
C517        C518   1.372       .  D
C519        H524   1.081       .  S
C519        C520   1.368       .  D
C520        C682   1.505       .  S
C525        C526   1.542       .  S
C525        C531   1.534       .  S
C525        C529   1.545       .  S
C525        C652   1.532       .  S
C526        H533   1.081       .  S
C526        C527   1.359       .  D
C527        C528   1.528   1_565  S
C527        C645   1.469       .  S
C528        C532   1.524   1_545  S
C528        C530   1.529       .  S
C528        H534   1.102       .  S
C529        H535   1.082       .  S
C529        C530   1.382   1_565  D
C531        H536   1.086       .  S
C531        C532   1.360       .  D
C532        C662   1.466       .  S
O537       Ni543   1.914       .  S
O537        C558   1.269       .  A
O538       Ni561   1.945   1_565  S
O538        C547   1.277       .  A
O539       Ni543   1.888       .  S
O539       Ni561   1.913       .  S
O539       Ni555   1.899       .  S
O539        H562   0.967       .  S
C540        O557   1.276       .  A
C540        O549   1.277   1_545  A
C540        C665   1.443       .  S
O541       Ni560   1.919       .  S
O541        C547   1.270       .  A
O542       Ni560   1.901   1_655  S
O542        C544   1.268   1_565  A
Ni543       O548   1.909       .  S
C544        O554   1.288       .  A
C544        C755   1.516       .  S
O545        C551   1.281       .  A
O546        C551   1.277       .  A
C547        C815   1.498       .  S
O548        C550   1.268       .  A
O549       Ni560   1.903       .  S
C550        O556   1.282       .  A
C550        C695   1.509       .  S
C551        C845   1.457       .  S
H552        O553   0.966       .  S
O553       Ni561   1.908       .  S
O553       Ni555   1.915       .  S
O553       Ni560   1.886   1_545  S
O554       Ni555   1.990   1_655  S
Ni555       O559   1.948       .  S
Ni555       O557   1.907       .  S
O556       Ni561   1.977       .  S
C558        O559   1.280       .  A
C558        C725   1.499       .  S
O563       Ni569   1.916       .  S
O563        C584   1.270       .  A
O564       Ni587   1.911       .  S
O564        C573   1.271       .  A
O565       Ni569   1.919       .  S
O565       Ni587   1.908       .  S
O565       Ni581   1.921   1_545  S
O565        H588   0.965       .  S
C566        O583   1.266       .  A
C566        O575   1.270       .  A
C566        C855   1.475       .  S
O567       Ni586   1.901   1_545  S
O567        C573   1.268       .  A
O568       Ni586   1.905   1_545  S
O568        C570   1.267       .  A
Ni569       O572   1.933       .  S
Ni569       O574   1.909       .  S
C570        O580   1.283   1_545  A
C570        C732   1.499       .  S
O571       Ni587   1.924       .  S
O571        C577   1.270       .  A
O572        C577   1.271       .  A
C573        C835   1.471       .  S
O574        C576   1.271       .  A
O575       Ni586   1.931       .  S
C576        O582   1.288       .  A
C576        C685   1.504       .  S
C577        C765   1.484       .  S
H578        O579   0.966       .  S
O579       Ni587   1.924   1_565  S
O579       Ni581   1.904       .  S
O579       Ni586   1.921       .  S
O580       Ni581   1.975       .  S
Ni581       O585   1.894       .  S
Ni581       O583   1.916       .  S
O582       Ni587   1.984       .  S
C584        O585   1.265   1_545  A
C584        C642   1.471       .  S
O589       Ni595   1.899       .  S
O589        C610   1.266       .  A
O590        C599   1.269       .  A
O591       Ni595   1.896       .  S
O591       Ni613   1.889       .  S
O591       Ni607   1.946       .  S
O591        H614   0.966       .  S
C592        O609   1.289       .  A
C592        O601   1.281       .  A
C592        C742   1.503       .  S
O593        C599   1.271       .  A
O594       Ni612   1.915       .  S
O594        C596   1.269       .  A
Ni595       O598   1.918       .  S
Ni595       O600   1.915       .  S
C596        O606   1.279       .  A
C596        C715   1.506       .  S
O597       Ni613   1.966       .  S
O597        C603   1.290       .  A
O598        C603   1.279       .  A
C599        C875   1.459       .  S
O600        C602   1.268       .  A
O601       Ni612   1.927       .  S
C602        O608   1.277       .  A
C602        C795   1.501       .  S
C603        C675   1.505       .  S
H604        O605   0.967       .  S
O605       Ni613   1.935       .  S
O605       Ni607   1.893       .  S
O605       Ni612   1.893       .  S
O606       Ni607   1.958       .  S
Ni607       O611   1.921       .  S
Ni607       O609   1.955       .  S
O608       Ni613   1.953       .  S
C610        O611   1.270       .  A
C610        C785   1.469       .  S
O615       Ni621   1.890       .  S
O615        C636   1.265       .  A
O616       Ni639   1.873       .  S
O616        C625   1.257       .  A
O617       Ni621   1.891   1_455  S
O617       Ni639   1.868       .  S
O617       Ni633   1.946       .  S
O617        H640   0.967       .  S
C618        O635   1.280       .  A
C618        O627   1.282       .  A
C618        C825   1.474       .  S
O619       Ni638   1.909       .  S
O619        C625   1.267       .  A
O620       Ni638   1.912       .  S
O620        C622   1.268       .  A
Ni621       O624   1.930       .  S
Ni621       O626   1.912       .  S
C622        O632   1.274       .  A
C622        C705   1.501       .  S
O623       Ni639   1.915       .  S
O623        C629   1.280       .  A
O624        C629   1.281   1_655  A
C625        C775   1.427       .  S
O626        C628   1.268   1_655  A
O627       Ni638   1.934       .  S
C628        O634   1.273       .  A
C628        C805   1.500       .  S
C629        C655   1.475       .  S
H630        O631   0.966       .  S
O631       Ni639   1.935       .  S
O631       Ni633   1.872       .  S
O631       Ni638   1.891       .  S
O632       Ni633   1.946       .  S
Ni633       O637   1.883   1_455  S
Ni633       O635   1.915       .  S
O634       Ni639   1.942       .  S
C636        O637   1.258       .  A
C636        C865   1.433       .  S
C641        C642   1.405       .  A
C641        C646   1.388       .  A
C641        H647   1.083       .  S
C642        C643   1.405   1_545  A
C643        C644   1.397       .  A
C643        H648   1.083       .  S
C644        C645   1.404       .  A
C644        H649   1.083       .  S
C645        C646   1.398   1_565  A
C646        H650   1.083       .  S
C651        C652   1.409       .  A
C651        C656   1.393       .  A
C651        H657   1.078       .  S
C652        C653   1.413       .  A
C653        C654   1.401   1_455  A
C653        H658   1.083   1_455  S
C654        C655   1.402   1_655  A
C654        H659   1.083       .  S
C655        C656   1.402       .  A
C656        H660   1.084       .  S
C661        C662   1.403   1_545  A
C661        C666   1.390       .  A
C661        H667   1.082       .  S
C662        C663   1.404       .  A
C663        C664   1.387   1_455  A
C663        H668   1.083   1_455  S
C664        C665   1.397   1_665  A
C664        H669   1.084       .  S
C665        C666   1.397       .  A
C666        H670   1.084       .  S
C671        H677   1.077       .  S
C672        C673   1.406       .  A
C673        C674   1.401       .  A
C673        H678   1.083       .  S
C674        C675   1.411       .  A
C674        H679   1.083       .  S
C675        C676   1.406       .  A
C681        C682   1.406       .  A
C681        C686   1.411       .  A
C681        H687   1.083       .  S
C682        C683   1.410       .  A
C683        C684   1.406       .  A
C683        H688   1.083       .  S
C684        C685   1.406       .  A
C684        H689   1.083       .  S
C685        C686   1.415       .  A
C686        H690   1.083       .  S
C691        C692   1.413       .  A
C691        C696   1.423       .  A
C691        H697   1.083       .  S
C693        C694   1.403       .  A
C693        H698   1.083       .  S
C694        H699   1.083       .  S
C695        C696   1.413       .  A
C696        H700   1.083       .  S
C701        C702   1.401       .  A
C701        C706   1.401       .  A
C701        H707   1.084       .  S
C702        C703   1.406   1_455  A
C703        C704   1.411       .  A
C703        H708   1.083       .  S
C704        C705   1.412   1_655  A
C704        H709   1.083       .  S
C705        C706   1.411       .  A
C706        H710   1.083       .  S
C711        C712   1.411       .  A
C711        C716   1.409       .  A
C711        H717   1.083       .  S
C712        C713   1.402       .  A
C713        C714   1.409       .  A
C713        H718   1.083       .  S
C714        C715   1.415       .  A
C714        H719   1.083       .  S
C715        C716   1.407       .  A
C716        H720   1.083       .  S
C721        C722   1.416   1_655  A
C721        C726   1.409       .  A
C721        H727   1.083       .  S
C722        C723   1.408       .  A
C723        C724   1.400       .  A
C723        H728   1.078       .  S
C724        C725   1.410       .  A
C724        H729   1.083       .  S
C725        C726   1.404   1_455  A
C726        H730   1.083       .  S
C731        C732   1.406   1_565  A
C731        C736   1.405       .  A
C731        H737   1.083       .  S
C732        C733   1.413       .  A
C733        C734   1.409       .  A
C733        H738   1.083       .  S
C734        C735   1.404       .  A
C734        H739   1.083       .  S
C735        C736   1.410   1_545  A
C736        H740   1.083       .  S
C741        C742   1.405       .  A
C741        C746   1.409       .  A
C741        H747   1.083       .  S
C742        C743   1.410       .  A
C743        C744   1.403       .  A
C743        H748   1.083       .  S
C744        C745   1.408       .  A
C744        H749   1.083       .  S
C745        C746   1.418       .  A
C746        H750   1.076       .  S
C751        C752   1.414       .  A
C751        C756   1.426       .  A
C751        H757   1.082       .  S
C752        C753   1.405   1_545  A
C753        C754   1.402       .  A
C753        H758   1.084       .  S
C754        C755   1.412   1_565  A
C754        H759   1.084       .  S
C755        C756   1.413       .  A
C756        H760   1.082       .  S
C761        C762   1.408       .  A
C761        C766   1.407       .  A
C761        H767   1.083       .  S
C762        C763   1.404       .  A
C763        C764   1.396       .  A
C763        H768   1.083       .  S
C764        C765   1.405       .  A
C764        H769   1.083       .  S
C765        C766   1.406       .  A
C766        H770   1.083       .  S
C771        C772   1.412       .  A
C771        C776   1.380       .  A
C771        H777   1.084       .  S
C772        C773   1.401       .  A
C773        C774   1.387       .  A
C773        H778   1.078       .  S
C774        C775   1.399       .  A
C774        H779   1.084       .  S
C775        C776   1.387       .  A
C776        H780   1.084       .  S
C781        C782   1.405       .  A
C781        C786   1.402       .  A
C781        H787   1.083       .  S
C782        C783   1.396       .  A
C783        C784   1.387       .  A
C783        H788   1.084       .  S
C784        C785   1.405       .  A
C784        H789   1.083       .  S
C785        C786   1.404       .  A
C786        H790   1.083       .  S
C791        C792   1.403       .  A
C791        C796   1.410       .  A
C791        H797   1.083       .  S
C793        C794   1.406       .  A
C793        H798   1.083   1_554  S
C794        H799   1.083   1_554  S
C795        C796   1.414       .  A
C796        H800   1.083       .  S
C801        C802   1.402       .  A
C801        C806   1.400       .  A
C801        H807   1.084   1_455  S
C802        C803   1.405       .  A
C803        C804   1.410       .  A
C803        H808   1.083       .  S
C804        C805   1.412       .  A
C804        H809   1.083       .  S
C805        C806   1.410       .  A
C806        H810   1.083   1_455  S
C811        C812   1.407       .  A
C811        C816   1.399       .  A
C811        H817   1.078       .  S
C813        C814   1.410       .  A
C813        H818   1.083       .  S
C814        H819   1.083       .  S
C815        C816   1.409       .  A
C816        H820   1.083   1_455  S
C821        C822   1.409       .  A
C821        C826   1.394       .  A
C821        H827   1.077   1_455  S
C822        C823   1.413       .  A
C823        C824   1.401       .  A
C823        H828   1.083       .  S
C824        C825   1.401       .  A
C824        H829   1.083       .  S
C825        C826   1.402       .  A
C826        H830   1.084   1_455  S
C831        C832   1.397       .  A
C831        C836   1.389       .  A
C831        H837   1.084       .  S
C832        C833   1.407       .  A
C833        C834   1.398       .  A
C833        H838   1.083       .  S
C834        C835   1.402       .  A
C834        H839   1.083       .  S
C835        C836   1.408       .  A
C836        H840   1.083   1_545  S
C841        C842   1.393       .  A
C841        C846   1.378       .  A
C841        H847   1.084   1_455  S
C842        C843   1.404       .  A
C843        C844   1.399       .  A
C843        H848   1.084       .  S
C844        C845   1.402       .  A
C844        H849   1.083       .  S
C845        C846   1.404       .  A
C846        H850   1.084   1_455  S
C851        C852   1.404       .  A
C851        C856   1.405       .  A
C851        H857   1.082       .  S
C852        C853   1.405       .  A
C853        C854   1.393       .  A
C853        H858   1.083       .  S
C854        C855   1.402       .  A
C854        H859   1.084       .  S
C855        C856   1.406       .  A
C856        H860   1.083       .  S
C861        C862   1.402       .  A
C861        C866   1.381       .  A
C861        H867   1.082       .  S
C862        C863   1.415       .  A
C863        C864   1.383       .  A
C863        H868   1.078       .  S
C864        C865   1.388       .  A
C864        H869   1.084       .  S
C865        C866   1.397       .  A
C866        H870   1.081       .  S
C871        C872   1.410       .  A
C871        C876   1.391       .  A
C871        H877   1.081       .  S
C872        C873   1.409       .  A
C873        C874   1.400       .  A
C873        H878   1.080       .  S
C874        C875   1.400       .  A
C874        H879   1.083       .  S
C875        C876   1.396       .  A
C876        H880   1.084       .  S
