geometry optimzed in LAMMPS
_audit_creation_date              2020-11-30 
_audit_creation_method            'lammps2cif' 
_symmetry_space_group_name_H-M    'P1' 
_symmetry_Int_Tables_number       1 
_symmetry_cell_setting            triclinic 
loop_ 
_symmetry_equiv_pos_as_xyz 
  x,y,z 
_cell_length_a                    45.3568173 
_cell_length_b                    45.51937158102252 
_cell_length_c                    28.531542813403014 
_cell_angle_alpha                 90.16463554411521 
_cell_angle_beta                  90.21687138999229 
_cell_angle_gamma                 120.34674653047533 
loop_ 
_atom_site_label 
_atom_site_type_symbol 
_atom_site_fract_x 
_atom_site_fract_y 
_atom_site_fract_z 
_atom_site_charge 
N1          N  0.06850140  0.66995715  0.36919732    -0.27400
N2          N  0.03480575  0.65168237  0.36563488    -0.35300
C3          C  0.02396243  0.62195200  0.38825648     0.00900
C4          C  0.05226677  0.62166584  0.40644532     0.07000
C5          C  0.07992609  0.65245224  0.39351797    -0.06100
H6          H  0.99743783  0.60266118  0.39283576     0.07600
H7          H  0.10632465  0.66237810  0.40358432     0.08800
Cu8        Cu  0.00548935  0.66992999  0.33338922     0.44200
Cu9        Cu  0.09815263  0.72007012  0.34872616     0.42000
Cu10       Cu  0.05330188  0.76263945  0.32172624     0.43900
N11         N  0.98556524  0.69825380  0.30284313    -0.34800
N12         N  0.00297211  0.73191979  0.30127319    -0.29100
C13         C  0.98471450  0.74295692  0.27798327    -0.05200
C14         C  0.95435954  0.71515387  0.26347677     0.07100
C15         C  0.95560965  0.68705782  0.27982483     0.00900
H16         H  0.99398691  0.76933152  0.26939088     0.08500
H17         H  0.93694146  0.66055210  0.27358877     0.07600
N18         N  0.10576093  0.78813639  0.32995400    -0.36200
N19         N  0.12255987  0.77199469  0.33827856    -0.28400
C20         C  0.15619516  0.79471643  0.34028646    -0.03700
C21         C  0.16073838  0.82670336  0.33243297     0.04900
C22         C  0.12822195  0.82167637  0.32648111     0.03000
H23         H  0.17573359  0.78845171  0.34805131     0.08100
H24         H  0.12143877  0.84089940  0.31967279     0.07000
N25         N  0.44514661  0.04926940  0.36566553    -0.27400
N26         N  0.46259780  0.08295213  0.36473232    -0.35300
C27         C  0.49254087  0.09390018  0.38758928     0.00900
C28         C  0.49376360  0.06566263  0.40326286     0.07000
C29         C  0.46339464  0.03798359  0.38847325    -0.06100
H30         H  0.51115632  0.12034133  0.39439230     0.07600
H31         H  0.45405969  0.01154385  0.39671887     0.08800
Cu32       Cu  0.44281353  0.11183595  0.33586981     0.44200
Cu33       Cu  0.39466743  0.01893391  0.34546634     0.42000
Cu34       Cu  0.35005033  0.06253142  0.32379751     0.43900
N35         N  0.41344025  0.13042103  0.30493421    -0.34800
N36         N  0.37968504  0.11243311  0.30257433    -0.29100
C37         C  0.36812835  0.12974321  0.27808121    -0.05200
C38         C  0.39576007  0.16007203  0.26375062     0.07100
C39         C  0.42419222  0.15978867  0.28141549     0.00900
H40         H  0.34162342  0.11986535  0.26866449     0.08500
H41         H  0.45069916  0.17868955  0.27563526     0.07600
N42         N  0.32542075  0.01043755  0.33244032    -0.36200
N43         N  0.34209672  0.99392987  0.33863114    -0.28400
C44         C  0.31947054  0.96037758  0.34114913    -0.03700
C45         C  0.28697202  0.95569711  0.33680948     0.04900
C46         C  0.29171518  0.98794730  0.33084180     0.03000
H47         H  0.32613482  0.94088967  0.34623698     0.08100
H48         H  0.27227815  0.99458210  0.32447472     0.07000
N49         N  0.04647653  0.44546447  0.63812452    -0.27400
N50         N  0.08026729  0.46308282  0.63963463    -0.35300
C51         C  0.09100891  0.49267959  0.61674068     0.00900
C52         C  0.06253952  0.49347866  0.60038016     0.07000
C53         C  0.03489567  0.46322794  0.61482982    -0.06100
H54         H  0.11749652  0.51130733  0.61024127     0.07600
H55         H  0.00834427  0.45360751  0.60596176     0.08800
Cu56       Cu  0.10966924  0.44374279  0.66842867     0.44200
Cu57       Cu  0.01669899  0.39525565  0.65756618     0.42000
Cu58       Cu  0.06162799  0.35118093  0.67494549     0.43900
N59         N  0.12926291  0.41452289  0.69683813    -0.34800
N60         N  0.11174992  0.38084066  0.69709285    -0.29100
C61         C  0.12966263  0.36924406  0.72016537    -0.05200
C62         C  0.15992325  0.39675685  0.73571434     0.07100
C63         C  0.15892608  0.42517067  0.72028000     0.00900
H64         H  0.12022762  0.34270859  0.72785647     0.08500
H65         H  0.17751896  0.45153511  0.72761462     0.07600
N66         N  0.00920330  0.32643716  0.66624535    -0.36200
N67         N  0.99238570  0.34294117  0.66170943    -0.28400
C68         C  0.95871558  0.32035371  0.65971115    -0.03700
C69         C  0.95417495  0.28800502  0.66274591     0.04900
C70         C  0.98672207  0.29282192  0.66734648     0.03000
H71         H  0.93900821  0.32697881  0.65654864     0.08100
H72         H  0.99357106  0.27356081  0.67323056     0.07000
N73         N  0.66869112  0.06860224  0.63805035    -0.27400
N74         N  0.65097734  0.03492822  0.63900233    -0.35300
C75         C  0.62159772  0.02430455  0.61476717     0.00900
C76         C  0.62106935  0.05274880  0.59822904     0.07000
C77         C  0.65127535  0.08020885  0.61382690    -0.06100
H78         H  0.60278072  0.99792691  0.60795772     0.07600
H79         H  0.66095371  0.10672613  0.60570524     0.08800
Cu80       Cu  0.66988767  0.00576794  0.67024853     0.44200
Cu81       Cu  0.71823373  0.09849591  0.66158000     0.42000
Cu82       Cu  0.76279782  0.05514749  0.68437688     0.43900
N83         N  0.69915907  0.98676439  0.70117848    -0.34800
N84         N  0.73292350  0.00475173  0.70366618    -0.29100
C85         C  0.74452632  0.98697348  0.72689808    -0.05200
C86         C  0.71698981  0.95628790  0.74038008     0.07100
C87         C  0.68848681  0.95690708  0.72351276     0.00900
H88         H  0.77106072  0.99669168  0.73597558     0.08500
H89         H  0.66200055  0.93774983  0.72878678     0.07600
N90         N  0.78722038  0.10753320  0.67888972    -0.36200
N91         N  0.77030642  0.12376097  0.67237962    -0.28400
C92         C  0.79255252  0.15740421  0.67073524    -0.03700
C93         C  0.82509365  0.16257650  0.67696239     0.04900
C94         C  0.82081023  0.13039129  0.68156868     0.03000
H95         H  0.78560127  0.17642265  0.66335055     0.08100
H96         H  0.84064435  0.12407015  0.68613997     0.07000
O97         O  0.57256444  0.02717689  0.54709173    -0.73100
O98         O  0.51376779  0.03523748  0.44785504    -0.74000
O99         O  0.57661138  0.03461879  0.44874708    -0.62700
O100        O  0.50971394  0.02775813  0.54642073    -0.71100
O101        O  0.53848313  0.08410993  0.55260030    -0.70600
O102        O  0.60558737  0.09099284  0.45449452    -0.61900
O103        O  0.54256432  0.09159572  0.45396409    -0.74400
O104        O  0.60152639  0.08352908  0.55325097    -0.73200
Cu105      Cu  0.54216596  0.02928139  0.49714962     1.04600
Cu106      Cu  0.57305778  0.08954006  0.50392502     1.04300
C107        C  0.59694601  0.05441560  0.56507683     0.93100
C108        C  0.51821022  0.06428476  0.43605028     0.92300
C109        C  0.60195002  0.06345079  0.43707848     0.84400
C110        C  0.51327306  0.05514177  0.56423078     0.90700
O111        O  0.02572524  0.57283762  0.45591100    -0.73100
O112        O  0.03213326  0.51322814  0.55480867    -0.74000
O113        O  0.03211862  0.57611718  0.55474736    -0.62700
O114        O  0.02554773  0.50963636  0.45601231    -0.71100
O115        O  0.08213964  0.53802100  0.45148148    -0.70600
O116        O  0.08871115  0.60466713  0.55007189    -0.61900
O117        O  0.08872971  0.54176760  0.55019198    -0.74400
O118        O  0.08232009  0.60123659  0.45139537    -0.73200
Cu119      Cu  0.02691302  0.54197106  0.50561556     1.04600
Cu120      Cu  0.08742868  0.57240262  0.50047368     1.04300
C121        C  0.05333773  0.59710351  0.43895485     0.93100
C122        C  0.06119378  0.51759858  0.56738619     0.92300
C123        C  0.06113538  0.60113517  0.56722586     0.84400
C124        C  0.05310201  0.51292992  0.43914814     0.90700
N125        N  0.71153377  0.98950812  0.97400121    -0.27400
N126        N  0.74528760  0.00540276  0.97707478    -0.35300
C127        C  0.75622169  0.98692039  0.95356028     0.00900
C128        C  0.72799003  0.95813555  0.93512176     0.07000
C129        C  0.70023042  0.96064531  0.94908857    -0.06100
H130        H  0.78278225  0.99481768  0.94799641     0.07600
H131        H  0.67385893  0.94407107  0.93872671     0.08800
Cu132      Cu  0.77503864  0.05378011  0.00786704     0.44200
Cu133      Cu  0.68159913  0.00996682  0.99351962     0.42000
Cu134      Cu  0.72844623  0.09904529  0.01315124     0.43900
N135        N  0.79588529  0.10354243  0.03438570    -0.34800
N136        N  0.77878883  0.12000116  0.03387710    -0.29100
C137        C  0.79741673  0.15036365  0.05510844    -0.05200
C138        C  0.82777995  0.15344455  0.07025321     0.07100
C139        C  0.82603611  0.12325454  0.05655070     0.00900
H140        H  0.78837048  0.16784399  0.06206990     0.08500
H141        H  0.84445328  0.11547535  0.06434204     0.07600
N142        N  0.67602087  0.07230522  0.00495353    -0.36200
N143        N  0.65824878  0.03896403  0.99907390    -0.28400
C144        C  0.62488590  0.02904844  0.99569295    -0.03700
C145        C  0.62157242  0.05755652  0.00042413     0.04900
C146        C  0.65459549  0.08456578  0.00573968     0.03000
H147        H  0.60452300  0.00302415  0.99021983     0.08100
H148        H  0.66268624  0.11126600  0.00895990     0.07000
N149        N  0.40084809  0.12097850  0.03384818    -0.27400
N150        N  0.36707414  0.10483146  0.03159640    -0.35300
C151        C  0.35625360  0.12401219  0.05350037     0.00900
C152        C  0.38464513  0.15357895  0.06995408     0.07000
C153        C  0.41231710  0.15069218  0.05663489    -0.06100
H154        H  0.32973106  0.11627861  0.05904268     0.07600
H155        H  0.43884405  0.16790597  0.06564033     0.08800
Cu156      Cu  0.33778790  0.05600707  0.00223084     0.44200
Cu157      Cu  0.43073834  0.10059546  0.01364762     0.42000
Cu158      Cu  0.38622175  0.01209541  0.98936919     0.43900
N159        N  0.31810132  0.00748367  0.97216579    -0.34800
N160        N  0.33560233  0.99144973  0.97001249    -0.29100
C161        C  0.31750758  0.96227637  0.94585186    -0.05200
C162        C  0.28723445  0.95971344  0.93140300     0.07100
C163        C  0.28831556  0.98876685  0.94877495     0.00900
H164        H  0.32696600  0.94551976  0.93628748     0.08500
H165        H  0.26976984  0.99663605  0.94260950     0.07600
N166        N  0.43888590  0.04046058  0.99363223    -0.36200
N167        N  0.45561743  0.07360606  0.00148112    -0.28400
C168        C  0.48935762  0.08496113  0.00159069    -0.03700
C169        C  0.49406945  0.05767052  0.99259773     0.04900
C170        C  0.46141877  0.02978179  0.98827266     0.03000
H171        H  0.50903821  0.11110389  0.00822647     0.08100
H172        H  0.45435734  0.00347308  0.98324246     0.07000
N173        N  0.12276456  0.40293250  0.96451846    -0.27400
N174        N  0.10741806  0.36952495  0.96969598    -0.35300
C175        C  0.12646329  0.35836484  0.94817747     0.00900
C176        C  0.15504376  0.38623701  0.92915276     0.07000
C177        C  0.15177751  0.41389278  0.94047108    -0.06100
H178        H  0.11930285  0.33189983  0.94481025     0.07600
H179        H  0.16805792  0.43989290  0.92913288     0.08800
Cu180      Cu  0.05978796  0.34117990  0.00269794     0.44200
Cu181      Cu  0.10213638  0.43277149  0.98131921     0.42000
Cu182      Cu  0.01643545  0.39014694  0.01835797     0.43900
N183        N  0.01195942  0.32213441  0.03499060    -0.34800
N184        N  0.99631940  0.33995032  0.03866175    -0.29100
C185        C  0.96689421  0.32163740  0.06194710    -0.05200
C186        C  0.96364713  0.29081559  0.07416932     0.07100
C187        C  0.99273436  0.29193840  0.05661037     0.00900
H188        H  0.94998921  0.33091997  0.07156403     0.08500
H189        H  0.99993172  0.27275632  0.06063964     0.07600
N190        N  0.04286474  0.44161823  0.00305594    -0.36200
N191        N  0.07509703  0.45754452  0.98982898    -0.28400
C192        C  0.08593865  0.49073434  0.98395402    -0.03700
C193        C  0.05908146  0.49595168  0.99369780     0.04900
C194        C  0.03223711  0.46428536  0.00622106     0.03000
H195        H  0.11157606  0.50972575  0.97382957     0.08100
H196        H  0.00735616  0.45830693  0.01871757     0.07000
N197        N  0.99398431  0.71255621  0.03438050    -0.27400
N198        N  0.00872339  0.74603641  0.03064902    -0.35300
C199        C  0.98895897  0.75612033  0.05251269     0.00900
C200        C  0.96051123  0.72755298  0.07033086     0.07000
C201        C  0.96457427  0.70051925  0.05793619    -0.06100
H202        H  0.99559840  0.78236305  0.05706287     0.07600
H203        H  0.94862082  0.67424188  0.06832692     0.08800
Cu204      Cu  0.05665135  0.77645269  0.99969907     0.44200
Cu205      Cu  0.01626026  0.68414981  0.01688140     0.42000
Cu206      Cu  0.10386190  0.73135993  0.99148859     0.43900
N207        N  0.10517292  0.79697582  0.96950001    -0.34800
N208        N  0.12218060  0.78042368  0.96889910    -0.29100
C209        C  0.15124216  0.79842434  0.94494345    -0.05200
C210        C  0.15285080  0.82773757  0.92906501     0.07100
C211        C  0.12325777  0.82619522  0.94529538     0.00900
H212        H  0.16879722  0.78961172  0.93697604     0.08500
H213        H  0.11473878  0.84405997  0.93810430     0.07600
N214        N  0.07887087  0.67957258  0.00167880    -0.36200
N215        N  0.04585020  0.66173421  0.01028956    -0.28400
C216        C  0.03624912  0.62863650  0.01274120    -0.03700
C217        C  0.06471053  0.62548871  0.00532564     0.04900
C218        C  0.09126517  0.65838732  0.99791890     0.03000
H219        H  0.01034256  0.60828029  0.01876441     0.08100
H220        H  0.11719568  0.66638353  0.98798723     0.07000
N221        N  0.06792146  0.45397702  0.37153615    -0.27400
N222        N  0.03416891  0.43805415  0.36881757    -0.35300
C223        C  0.02344059  0.45740604  0.39041904     0.00900
C224        C  0.05186589  0.48683206  0.40711973     0.07000
C225        C  0.07946894  0.48370654  0.39429416    -0.06100
H226        H  0.99693461  0.44987635  0.39560004     0.07600
H227        H  0.10595712  0.50070711  0.40372393     0.08800
Cu228      Cu  0.00463487  0.38928617  0.33927822     0.44200
Cu229      Cu  0.09759830  0.43313507  0.35280345     0.42000
Cu230      Cu  0.05179309  0.34414543  0.33174159     0.43900
N231        N  0.98484409  0.34071069  0.30925066    -0.34800
N232        N  0.00194641  0.32424188  0.30881037    -0.29100
C233        C  0.98418290  0.29517095  0.28430125    -0.05200
C234        C  0.95450620  0.29307544  0.26791118     0.07100
C235        C  0.95563002  0.32235484  0.28445627     0.00900
H236        H  0.99346801  0.27805595  0.27606842     0.08500
H237        H  0.93753223  0.33058196  0.27688147     0.07600
N238        N  0.10437079  0.37159953  0.33913886    -0.36200
N239        N  0.12160148  0.40497128  0.34490767    -0.28400
C240        C  0.15524075  0.41585767  0.34522061    -0.03700
C241        C  0.15929823  0.38786989  0.33988119     0.04900
C242        C  0.12649807  0.36025827  0.33569100     0.03000
H243        H  0.17527870  0.44218577  0.34910129     0.08100
H244        H  0.11921465  0.33406156  0.32881984     0.07000
N245        N  0.38008796  0.32566696  0.30126845    -0.27400
N246        N  0.41389733  0.34223857  0.30221386    -0.35300
C247        C  0.42463806  0.32325578  0.27964503     0.00900
C248        C  0.39616286  0.29343810  0.26407028     0.07900
C249        C  0.36851597  0.29587438  0.27870715    -0.06100
H250        H  0.45110561  0.33140911  0.27272211     0.07600
H251        H  0.34191635  0.27851129  0.27025013     0.08800
Cu252      Cu  0.44338495  0.39153268  0.32992151     0.44200
Cu253      Cu  0.35021895  0.34616878  0.32015102     0.42000
Cu254      Cu  0.39545441  0.43569182  0.33819729     0.43900
N255        N  0.46314430  0.44028381  0.35913170    -0.34800
N256        N  0.44566301  0.45635690  0.36021347    -0.29100
C257        C  0.46356522  0.48566526  0.38419683    -0.05200
C258        C  0.49372566  0.48830849  0.39954308     0.07100
C259        C  0.49273138  0.45911118  0.38293884     0.00900
H260        H  0.45412812  0.50260218  0.39277930     0.08500
H261        H  0.51119907  0.45125291  0.38985793     0.07600
N262        N  0.34299221  0.40778349  0.32880261    -0.36200
N263        N  0.32603380  0.37432344  0.32411968    -0.28400
C264        C  0.29239435  0.36322779  0.32179339    -0.03700
C265        C  0.28800642  0.39114074  0.32467144     0.04900
C266        C  0.32063924  0.41895720  0.32956016     0.03000
H267        H  0.27255461  0.33676895  0.31854933     0.08100
H268        H  0.32760526  0.44517466  0.33542568     0.07000
O269        O  0.42217378  0.27125608  0.21355907    -0.73100
O270        O  0.41497591  0.20473077  0.11436562    -0.74000
O271        O  0.41509489  0.26803118  0.11492465    -0.62700
O272        O  0.42196470  0.20824646  0.21316299    -0.71100
O273        O  0.36538921  0.17977899  0.21807468    -0.70600
O274        O  0.35853842  0.23967204  0.12004167    -0.61900
O275        O  0.35840982  0.17635186  0.11926873    -0.74400
O276        O  0.36561264  0.24279620  0.21878343    -0.73200
Cu277      Cu  0.42050308  0.23903087  0.16363761     1.04600
Cu278      Cu  0.36002613  0.20865781  0.16928310     1.04300
C279        C  0.39472567  0.26776105  0.23110816     0.93100
C280        C  0.38590841  0.17964684  0.10214248     0.92300
C281        C  0.38605583  0.26405863  0.10307191     0.84400
C282        C  0.39445352  0.18411605  0.23052096     0.90700
N283        N  0.78816728  0.73443115  0.29592310    -0.27400
N284        N  0.77279649  0.70101839  0.30138337    -0.35300
C285        C  0.79200994  0.68972813  0.28071944     0.00900
C286        C  0.82078842  0.71747514  0.26200213     0.07000
C287        C  0.81745296  0.74521900  0.27259511    -0.06100
H288        H  0.78481888  0.66323635  0.27769772     0.07600
H289        H  0.83388929  0.77115639  0.26112492     0.08800
Cu290      Cu  0.72497350  0.67228544  0.33337869     0.44200
Cu291      Cu  0.76750863  0.76476343  0.31114108     0.42000
Cu292      Cu  0.68172278  0.72065973  0.34638926     0.43900
N293        N  0.67674288  0.65296427  0.36410552    -0.34800
N294        N  0.66106357  0.67076440  0.36655099    -0.29100
C295        C  0.63155258  0.65289546  0.38966184    -0.05200
C296        C  0.62831187  0.62235739  0.40310096     0.07100
C297        C  0.65741992  0.62311022  0.38637181     0.00900
H298        H  0.61479910  0.66247730  0.39872397     0.08500
H299        H  0.66470404  0.60410622  0.39178767     0.07600
N300        N  0.70737006  0.77206239  0.33318721    -0.36200
N301        N  0.73955934  0.78886135  0.31993931    -0.28400
C302        C  0.74936933  0.82193534  0.31520072    -0.03700
C303        C  0.72186442  0.82608526  0.32601836     0.04900
C304        C  0.69582122  0.79384899  0.33790728     0.03000
H305        H  0.77476927  0.84159434  0.30523524     0.08100
H306        H  0.67088254  0.78670117  0.35133654     0.07000
N307        N  0.66043170  0.04732951  0.37087701    -0.27400
N308        N  0.67571374  0.08073448  0.36529962    -0.35300
C309        C  0.65650128  0.09194989  0.38624614     0.00900
C310        C  0.62783598  0.06416945  0.40525393     0.07000
C311        C  0.63126473  0.03649764  0.39455007    -0.06100
H312        H  0.66355234  0.11841053  0.38910946     0.07600
H313        H  0.61489092  0.01053907  0.40597834     0.08800
Cu314      Cu  0.72336940  0.10947767  0.33231074     0.44200
Cu315      Cu  0.68082229  0.01688305  0.35479235     0.42000
Cu316      Cu  0.76621148  0.06079589  0.31826480     0.43900
N317        N  0.77145110  0.12861012  0.30061415    -0.34800
N318        N  0.78694645  0.11064272  0.29786713    -0.29100
C319        C  0.81643027  0.12838169  0.27461979    -0.05200
C320        C  0.81991974  0.15906201  0.26140292     0.07100
C321        C  0.79091534  0.15847745  0.27837149     0.00900
H322        H  0.83308421  0.11868981  0.26552463     0.08500
H323        H  0.78389373  0.17771077  0.27334968     0.07600
N324        N  0.74057552  0.00936524  0.33119196    -0.36200
N325        N  0.70847346  0.99258442  0.34481703    -0.28400
C326        C  0.69861399  0.95946868  0.34918134    -0.03700
C327        C  0.72601492  0.95529713  0.33776517     0.04900
C328        C  0.75202823  0.98754437  0.32588798     0.03000
H329        H  0.67327985  0.93981396  0.35940129     0.08100
H330        H  0.77688842  0.99468646  0.31214807     0.07000
O331        O  0.84665489  0.69830183  0.11378488    -0.73100
O332        O  0.90536864  0.68926664  0.21284712    -0.74000
O333        O  0.84262773  0.69047203  0.21250724    -0.62700
O334        O  0.90939407  0.69708340  0.11425379    -0.71100
O335        O  0.93831487  0.75343146  0.12073676    -0.70600
O336        O  0.87197093  0.74683256  0.21863971    -0.61900
O337        O  0.93438543  0.74561307  0.21908607    -0.74400
O338        O  0.87588687  0.75461979  0.12049364    -0.73200
Cu339      Cu  0.87496251  0.69177573  0.16297613     1.04600
Cu340      Cu  0.90614619  0.75202009  0.17012429     1.04300
C341        C  0.85140042  0.72755235  0.10232947     0.93100
C342        C  0.92983640  0.71650766  0.23077115     0.92300
C343        C  0.84652318  0.71805484  0.23014996     0.84400
C344        C  0.93464922  0.72605543  0.10278708     0.90700
O345        O  0.87679410  0.17722179  0.12033294    -0.73100
O346        O  0.93502582  0.24331212  0.22125533    -0.74000
O347        O  0.87154366  0.17997012  0.21858596    -0.62700
O348        O  0.94027522  0.24116589  0.12249951    -0.71100
O349        O  0.91179723  0.26881961  0.11647388    -0.70600
O350        O  0.84342830  0.20798686  0.21230613    -0.61900
O351        O  0.90689322  0.27131038  0.21508200    -0.74400
O352        O  0.84833597  0.20488157  0.11388852    -0.73200
Cu353      Cu  0.90691577  0.20947716  0.17095242     1.04600
Cu354      Cu  0.87665884  0.23922718  0.16402223     1.04300
C355        C  0.85251464  0.18002245  0.10237246     0.93100
C356        C  0.93070195  0.26790342  0.23355868     0.92300
C357        C  0.84638067  0.18381028  0.22977063     0.84400
C358        C  0.93717369  0.26538311  0.10531104     0.90700
N359        N  0.40099623  0.33807323  0.03620586    -0.27400
N360        N  0.36726050  0.32000092  0.03306036    -0.35300
C361        C  0.35645827  0.28983958  0.05452308     0.00900
C362        C  0.38482518  0.28905576  0.07149309     0.07000
C363        C  0.41245649  0.32001371  0.05905646    -0.06100
H364        H  0.32993763  0.27057208  0.05920736     0.07600
H365        H  0.43890402  0.32967114  0.06859029     0.08800
Cu366      Cu  0.33794776  0.33899780  0.00249925     0.44200
Cu367      Cu  0.43090992  0.38857866  0.01720389     0.42000
Cu368      Cu  0.38634644  0.43162807  0.99156056     0.43900
N369        N  0.31863102  0.36777499  0.97138093    -0.34800
N370        N  0.33631260  0.40143340  0.96972470    -0.29100
C371        C  0.31864394  0.41270616  0.94539687    -0.05200
C372        C  0.28836347  0.38503998  0.93036487     0.07100
C373        C  0.28905698  0.35682443  0.94749067     0.00900
H374        H  0.32826451  0.43910402  0.93658321     0.08500
H375        H  0.27028378  0.33036439  0.94114865     0.07600
N376        N  0.43871635  0.45691062  0.00024541    -0.36200
N377        N  0.45554832  0.44072124  0.00793543    -0.28400
C378        C  0.48922969  0.46346011  0.00928411    -0.03700
C379        C  0.49366151  0.49552878  0.00259248     0.04900
C380        C  0.46112636  0.49042769  0.99658185     0.03000
H381        H  0.50899005  0.45716021  0.01490630     0.08100
H382        H  0.45425995  0.50944234  0.98867955     0.07000
N383        N  0.71558568  0.77858630  0.96654699    -0.27400
N384        N  0.74934634  0.79665271  0.96887844    -0.35300
C385        C  0.75988166  0.82624879  0.94589415     0.00900
C386        C  0.73127644  0.82654805  0.92870398     0.07000
C387        C  0.70384191  0.79599781  0.94271963    -0.06100
H388        H  0.78633390  0.84539060  0.94032200     0.07600
H389        H  0.67728140  0.78607655  0.93359436     0.08800
Cu390      Cu  0.77865461  0.77771468  0.99992478     0.44200
Cu391      Cu  0.68588232  0.72839291  0.98643039     0.42000
Cu392      Cu  0.72993068  0.68450376  0.00674944     0.43900
N393        N  0.79737663  0.74798660  0.02993725    -0.34800
N394        N  0.77962904  0.71429074  0.03010144    -0.29100
C395        C  0.79709182  0.70237509  0.05354416    -0.05200
C396        C  0.82733129  0.72961760  0.06948060     0.07100
C397        C  0.82679546  0.75827910  0.05392726     0.00900
H398        H  0.78739902  0.67575777  0.06099150     0.08500
H399        H  0.84562510  0.78456359  0.06128963     0.07600
N400        N  0.67776546  0.65943832  0.99603985    -0.36200
N401        N  0.66108372  0.67599164  0.99056509    -0.28400
C402        C  0.62745232  0.65341985  0.98735858    -0.03700
C403        C  0.62284456  0.62104210  0.99049481     0.04900
C404        C  0.65527428  0.62580157  0.99643900     0.03000
H405        H  0.60781121  0.66006281  0.98328695     0.08100
H406        H  0.66196188  0.60645100  0.00264803     0.07000
N407        N  0.04576505  0.65829947  0.63802129    -0.27400
N408        N  0.07957765  0.67542738  0.63822096    -0.35300
C409        C  0.09060373  0.65686890  0.61517816     0.00900
C410        C  0.06231369  0.62677272  0.59999196     0.07000
C411        C  0.03446470  0.62860056  0.61532070    -0.06100
H412        H  0.11710672  0.66544905  0.60779113     0.07600
H413        H  0.00785208  0.61072964  0.60764898     0.08800
Cu414      Cu  0.10861163  0.72482802  0.66562389     0.44200
Cu415      Cu  0.01539262  0.67750451  0.65989788     0.42000
Cu416      Cu  0.05949034  0.76728365  0.67699325     0.43900
N417        N  0.12822331  0.77384514  0.69371834    -0.34800
N418        N  0.11035591  0.78949388  0.69536510    -0.29100
C419        C  0.12823395  0.81903942  0.71881996    -0.05200
C420        C  0.15877766  0.82221810  0.73329877     0.07100
C421        C  0.15805250  0.79316533  0.71667152     0.00900
H422        H  0.11840391  0.83552386  0.72814352     0.08500
H423        H  0.17680325  0.78563255  0.72331494     0.07600
N424        N  0.00692950  0.73783116  0.67510207    -0.36200
N425        N  0.99043002  0.70438569  0.67045391    -0.28400
C426        C  0.95661509  0.69259269  0.67084128    -0.03700
C427        C  0.95171697  0.72005227  0.67657213     0.04900
C428        C  0.98418154  0.74831375  0.67875233     0.03000
H429        H  0.93728663  0.66628817  0.66500765     0.08100
H430        H  0.99078401  0.77463215  0.68220683     0.07000
N431        N  0.73629562  0.79172440  0.69665960    -0.27400
N432        N  0.70258123  0.77585744  0.69312943    -0.35300
C433        C  0.69161048  0.79463396  0.71582166     0.00900
C434        C  0.71982864  0.82357420  0.73410328     0.07000
C435        C  0.74757684  0.82080644  0.72098365    -0.06100
H436        H  0.66504294  0.78691149  0.72085321     0.07600
H437        H  0.77391508  0.83740902  0.73147106     0.08800
Cu438      Cu  0.67332435  0.72739843  0.66198830     0.44200
Cu439      Cu  0.76607233  0.77115320  0.67788010     0.42000
Cu440      Cu  0.72050952  0.68240183  0.65479716     0.43900
N441        N  0.65318803  0.67818808  0.63330478    -0.34800
N442        N  0.67045263  0.66188606  0.63309232    -0.29100
C443        C  0.65221605  0.63198015  0.61059797    -0.05200
C444        C  0.62193261  0.62901674  0.59534994     0.07100
C445        C  0.62331094  0.65880192  0.61031636     0.00900
H446        H  0.66143250  0.61470803  0.60310305     0.08500
H447        H  0.60475831  0.66649730  0.60306316     0.07600
N448        N  0.77280896  0.70969261  0.66384163    -0.36200
N449        N  0.78993376  0.74293624  0.67079143    -0.28400
C450        C  0.82344265  0.75363328  0.67395868    -0.03700
C451        C  0.82752479  0.72569671  0.66814670     0.04900
C452        C  0.79487632  0.69822028  0.66229010     0.03000
H453        H  0.84310456  0.77959185  0.68126618     0.08100
H454        H  0.78772438  0.67189978  0.65680673     0.07000
O455        O  0.69137886  0.90668846  0.78880830    -0.73100
O456        O  0.70011459  0.84620617  0.88445827    -0.74000
O457        O  0.69834200  0.90834952  0.88774585    -0.62700
O458        O  0.69296657  0.84440089  0.78552909    -0.71100
O459        O  0.74952590  0.87377933  0.78071480    -0.70600
O460        O  0.75489790  0.93780964  0.88290348    -0.61900
O461        O  0.75666178  0.87572608  0.87960178    -0.74400
O462        O  0.74792727  0.93609188  0.78396262    -0.73200
Cu463      Cu  0.69374591  0.87537595  0.83691500     1.04600
Cu464      Cu  0.75420291  0.90688668  0.83146322     1.04300
C465        C  0.71866727  0.93155091  0.77207996     0.93100
C466        C  0.72942514  0.85091815  0.89648235     0.92300
C467        C  0.72717307  0.93341701  0.90078132     0.84400
C468        C  0.72067438  0.84864254  0.76783308     0.90700
N469        N  0.45478634  0.06934783  0.63387234    -0.27400
N470        N  0.43943998  0.03578155  0.63705685    -0.35300
C471        C  0.45872011  0.02533921  0.61454309     0.00900
C472        C  0.48744693  0.05374752  0.59682777     0.07000
C473        C  0.48403299  0.08104130  0.61000278    -0.06100
H474        H  0.45160204  0.99899724  0.60956173     0.07600
H475        H  0.50041739  0.10736384  0.60011173     0.08800
Cu476      Cu  0.39129652  0.00583728  0.66824522     0.44200
Cu477      Cu  0.43377440  0.09867394  0.65291020     0.42000
Cu478      Cu  0.34622064  0.05264989  0.67920284     0.43900
N479        N  0.34246807  0.98564970  0.69791658    -0.34800
N480        N  0.32622832  0.00294320  0.69932058    -0.29100
C481        C  0.29666644  0.98496742  0.72222013    -0.05200
C482        C  0.29388301  0.95483855  0.73662989     0.07100
C483        C  0.32334784  0.95592846  0.72064357     0.00900
H484        H  0.27960806  0.99430899  0.73062600     0.08500
H485        H  0.33104983  0.93733876  0.72704845     0.07600
N486        N  0.37199394  0.10439050  0.66966160    -0.36200
N487        N  0.40497497  0.12189932  0.66067108    -0.28400
C488        C  0.41473617  0.15500947  0.65720980    -0.03700
C489        C  0.38635837  0.15837481  0.66416692     0.04900
C490        C  0.35977323  0.12573023  0.67261949     0.03000
H491        H  0.44055270  0.17515283  0.65006376     0.08100
H492        H  0.33380045  0.11797762  0.68198705     0.07000
N493        N  0.32591067  0.37957076  0.69886825    -0.27400
N494        N  0.34148816  0.41309674  0.69503795    -0.35300
C495        C  0.32251016  0.42398537  0.71740522     0.00900
C496        C  0.29376063  0.39585078  0.73567210     0.07000
C497        C  0.29685550  0.36830476  0.72298661    -0.06100
H498        H  0.32983477  0.45042224  0.72189060     0.07600
H499        H  0.28037280  0.34209882  0.73332548     0.08800
Cu500      Cu  0.38944703  0.44197220  0.66286637     0.44200
Cu501      Cu  0.34623709  0.34976763  0.67988318     0.42000
Cu502      Cu  0.43276978  0.39310327  0.64697702     0.43900
N503        N  0.43772156  0.46130893  0.63163681    -0.34800
N504        N  0.45335488  0.44347877  0.62822717    -0.29100
C505        C  0.48293186  0.46174167  0.60532026    -0.05200
C506        C  0.48630153  0.49256343  0.59299433     0.07100
C507        C  0.45714757  0.49152118  0.61016283     0.00900
H508        H  0.49970130  0.45230078  0.59567132     0.08500
H509        H  0.44994788  0.51066789  0.60568274     0.07600
N510        N  0.40586148  0.34132897  0.65887883    -0.36200
N511        N  0.37329156  0.32500887  0.67046574    -0.28400
C512        C  0.36255140  0.29175733  0.67541784    -0.03700
C513        C  0.38986362  0.28700268  0.66683555     0.04900
C514        C  0.41682263  0.31894675  0.65581432     0.03000
H515        H  0.33684609  0.27251099  0.68488517     0.08100
H516        H  0.44220991  0.32544985  0.64498907     0.07000
O517        O  0.20573950  0.41580754  0.88460926    -0.73100
O518        O  0.27186547  0.42228687  0.78595185    -0.74000
O519        O  0.20884678  0.42262117  0.78611453    -0.62700
O520        O  0.26862538  0.41533768  0.88474820    -0.71100
O521        O  0.23972144  0.35895298  0.87932165    -0.70600
O522        O  0.17996399  0.36624723  0.78042539    -0.61900
O523        O  0.24308694  0.36589438  0.78052581    -0.74400
O524        O  0.17676764  0.35940630  0.87924624    -0.73200
Cu525      Cu  0.23977705  0.42095202  0.83568197     1.04600
Cu526      Cu  0.20888484  0.36065912  0.82952859     1.04300
C527        C  0.18056766  0.38698795  0.89669705     0.93100
C528        C  0.26818612  0.39478473  0.76841335     0.92300
C529        C  0.18436239  0.39526746  0.76849011     0.84400
C530        C  0.26412387  0.38633828  0.89700544     0.90700
O531        O  0.26673460  0.90966593  0.88510241    -0.73100
O532        O  0.20669315  0.84394644  0.78507598    -0.74000
O533        O  0.27064854  0.90634869  0.78650243    -0.62700
O534        O  0.20292014  0.84732176  0.88377004    -0.71100
O535        O  0.17518244  0.87576095  0.87817030    -0.70600
O536        O  0.24315675  0.93502729  0.78083147    -0.61900
O537        O  0.17907275  0.87248899  0.77932021    -0.74400
O538        O  0.23919261  0.93829961  0.87963251    -0.73200
Cu539      Cu  0.23766044  0.87580804  0.83541904     1.04600
Cu540      Cu  0.20819335  0.90641273  0.82913810     1.04300
C541        C  0.26292235  0.93454420  0.89757866     0.93100
C542        C  0.18295164  0.84761043  0.76701085     0.92300
C543        C  0.26783419  0.93059764  0.76902398     0.84400
C544        C  0.17828442  0.85171163  0.89583056     0.90700
O545        O  0.60134517  0.57769335  0.55140827    -0.73100
O546        O  0.54192223  0.51059766  0.45137586    -0.74000
O547        O  0.60539456  0.57386029  0.45289420    -0.62700
O548        O  0.53779418  0.51392764  0.55001858    -0.71100
O549        O  0.50947761  0.54175607  0.54405147    -0.70600
O550        O  0.57717321  0.60178325  0.44665315    -0.61900
O551        O  0.51372439  0.53854115  0.44536722    -0.74400
O552        O  0.57299768  0.60546350  0.54501769    -0.73200
Cu553      Cu  0.57258753  0.54304279  0.50182340     1.04600
Cu554      Cu  0.54236009  0.57283560  0.49497243     1.04300
C555        C  0.59726192  0.60260854  0.56294094     0.93100
C556        C  0.51791996  0.51383836  0.43322685     0.92300
C557        C  0.60221482  0.59784499  0.43521036     0.84400
C558        C  0.51261387  0.51763055  0.56143165     0.90700
C559        C  0.36248211  0.22638896  0.64362058    -0.20400
C560        C  0.38935735  0.25429113  0.66697689    -0.07000
C561        C  0.41444117  0.25013517  0.69065256     0.13900
C562        C  0.41237186  0.21836251  0.68936906    -0.20500
C563        C  0.38578549  0.19055491  0.66549255    -0.07000
C564        C  0.36042799  0.19458536  0.64225800     0.13900
C565        C  0.33205768  0.16619538  0.61418928    -0.23800
H566        H  0.34327382  0.22969748  0.62561686     0.15200
H567        H  0.43158728  0.21511511  0.70746198     0.15200
C568        C  0.44268238  0.27851313  0.71888456    -0.23800
H569        H  0.31669417  0.17503281  0.59483712     0.05400
H570        H  0.31434722  0.14550020  0.63769732     0.08600
H571        H  0.34289873  0.15616118  0.58808696     0.08600
H572        H  0.43168142  0.28844974  0.74488492     0.08600
H573        H  0.46041383  0.29930709  0.69551790     0.08600
H574        H  0.45802294  0.26970102  0.73835034     0.05400
C575        C  0.91748051  0.74372831  0.64468282    -0.20400
C576        C  0.91931068  0.72032302  0.67465699    -0.07000
C577        C  0.89085775  0.69876677  0.70265423     0.13900
C578        C  0.86123037  0.70113952  0.69965048    -0.20500
C579        C  0.85954512  0.72473035  0.66987208    -0.07000
C580        C  0.88789641  0.74607396  0.64164378     0.13900
C581        C  0.88671754  0.77030706  0.60681628    -0.23800
H582        H  0.93926878  0.76002654  0.62302596     0.15200
H583        H  0.83936664  0.68481469  0.72117050     0.15200
C584        C  0.89195903  0.67429278  0.73709426    -0.23800
H585        H  0.91027870  0.78308907  0.58536275     0.05400
H586        H  0.88441131  0.79048105  0.62528841     0.08600
H587        H  0.86466315  0.75619453  0.58261525     0.08600
H588        H  0.91391882  0.68822892  0.76149408     0.08600
H589        H  0.89437756  0.65430275  0.71827482     0.08600
H590        H  0.86830629  0.66130335  0.75834044     0.05400
C591        C  0.55073424  0.53060828  0.96722457    -0.20400
C592        C  0.52638995  0.52796350  0.99970886    -0.07000
C593        C  0.53389000  0.55595511  0.02909359     0.13900
C594        C  0.56552884  0.58607309  0.02492400    -0.20500
C595        C  0.58994268  0.58870614  0.99258310    -0.07000
C596        C  0.58238820  0.56076744  0.96301494     0.13900
C597        C  0.60693892  0.56304228  0.92579989    -0.23800
H598        H  0.54471804  0.50908119  0.94461565     0.15200
H599        H  0.57152718  0.60755183  0.04762429     0.15200
C600        C  0.50928187  0.55375723  0.06616451    -0.23800
H601        H  0.59596808  0.53952181  0.90406574     0.05400
H602        H  0.63073822  0.56662939  0.94217339     0.08600
H603        H  0.61311641  0.58474550  0.90220737     0.08600
H604        H  0.50316447  0.53217952  0.08997458     0.08600
H605        H  0.48545664  0.54999449  0.04963248     0.08600
H606        H  0.52015390  0.57736688  0.08769445     0.05400
C607        C  0.75134048  0.88731648  0.34675300    -0.20400
C608        C  0.72196738  0.85869034  0.32889827    -0.07000
C609        C  0.69417596  0.86219851  0.31349040     0.13900
C610        C  0.69655857  0.89409664  0.31679747    -0.20500
C611        C  0.72592425  0.92271059  0.33468771    -0.07000
C612        C  0.75372074  0.91920733  0.35006408     0.13900
C613        C  0.78546621  0.94830953  0.37178560    -0.23800
H614        H  0.77253942  0.88462353  0.35880875     0.15200
H615        H  0.67535702  0.89680015  0.30478276     0.15200
C616        C  0.66241834  0.83309029  0.29180721    -0.23800
H617        H  0.80243021  0.93969064  0.38684034     0.05400
H618        H  0.77845485  0.96004900  0.40057363     0.08600
H619        H  0.80051733  0.96755783  0.34492020     0.08600
H620        H  0.64733420  0.81390019  0.31871923     0.08600
H621        H  0.66941172  0.82128023  0.26309395     0.08600
H622        H  0.64549192  0.84172457  0.27666291     0.05400
C623        C  0.21616546  0.40983862  0.30366438    -0.20400
C624        C  0.19187663  0.38799034  0.33616874    -0.07000
C625        C  0.19936531  0.36727556  0.36481493     0.13900
C626        C  0.23085154  0.36872032  0.35986914    -0.20500
C627        C  0.25520486  0.39065489  0.32751987    -0.07000
C628        C  0.24767378  0.41127454  0.29871083     0.13900
C629        C  0.27205995  0.43375424  0.26146209    -0.23800
H630        H  0.21022607  0.42553452  0.28161152     0.15200
H631        H  0.23679081  0.35306562  0.38201263     0.15200
C632        C  0.17499215  0.34474389  0.40204031    -0.23800
H633        H  0.26103069  0.44631823  0.24020898     0.05400
H634        H  0.27806130  0.41828415  0.23741276     0.08600
H635        H  0.29595313  0.45408652  0.27775287     0.08600
H636        H  0.15108334  0.32445924  0.38571387     0.08600
H637        H  0.16903068  0.36018383  0.42620545     0.08600
H638        H  0.18599959  0.33211011  0.42318531     0.05400
C639        C  0.08799176  0.55635253  0.01851687    -0.20400
C640        C  0.06039189  0.52904916  0.99526643    -0.07000
C641        C  0.03521407  0.53407889  0.97367276     0.13900
C642        C  0.03781225  0.56603238  0.97711311    -0.20500
C643        C  0.06501699  0.59321013  0.00117985    -0.07000
C644        C  0.09060470  0.58835269  0.02203042     0.13900
C645        C  0.11985498  0.61601753  0.04981195    -0.23800
H646        H  0.10731082  0.55238708  0.03486752     0.15200
H647        H  0.01846553  0.56988720  0.96062723     0.15200
C648        C  0.00626589  0.50641392  0.94548129    -0.23800
H649        H  0.13536837  0.60652922  0.06722074     0.05400
H650        H  0.10992334  0.62586362  0.07750214     0.08600
H651        H  0.13720751  0.63697637  0.02637482     0.08600
H652        H  0.98899703  0.48512033  0.96853275     0.08600
H653        H  0.01659712  0.49697040  0.91779386     0.08600
H654        H  0.99063524  0.51576520  0.92807413     0.05400
C655        C  0.54984432  0.07473821  0.02996498    -0.20400
C656        C  0.52685688  0.05789277  0.99298192    -0.07000
C657        C  0.53569141  0.04188577  0.95761176     0.13900
C658        C  0.56680264  0.04227461  0.96106262    -0.20500
C659        C  0.58957751  0.05877255  0.99838519    -0.07000
C660        C  0.58099528  0.07526406  0.03330799     0.13900
C661        C  0.60366181  0.09207379  0.07536186    -0.23800
H662        H  0.54302748  0.08698075  0.05700843     0.15200
H663        H  0.57361230  0.02993192  0.93415655     0.15200
C664        C  0.51328911  0.02564649  0.91516476    -0.23800
H665        H  0.59157776  0.10119308  0.10087352     0.05400
H666        H  0.62803433  0.11450987  0.06441183     0.08600
H667        H  0.60886262  0.07364228  0.09363370     0.08600
H668        H  0.50815739  0.04432300  0.89748045     0.08600
H669        H  0.48886212  0.00302502  0.92546267     0.08600
H670        H  0.52559993  0.01697686  0.88935488     0.05400
C671        C  0.89674583  0.25360039  0.69722960    -0.20400
C672        C  0.92130706  0.25567041  0.66556325    -0.07000
C673        C  0.91383594  0.22722870  0.63712160     0.13900
C674        C  0.88224437  0.19714736  0.64195778    -0.20500
C675        C  0.85777810  0.19502484  0.67379427    -0.07000
C676        C  0.86507738  0.22356644  0.70187917     0.13900
C677        C  0.84025611  0.22213320  0.73805145    -0.23800
H678        H  0.90261959  0.27548741  0.71897936     0.15200
H679        H  0.87633325  0.17525359  0.62019500     0.15200
C680        C  0.93829502  0.22883295  0.60022333    -0.23800
H681        H  0.85109641  0.24610092  0.75878427     0.05400
H682        H  0.83381936  0.20093333  0.76272672     0.08600
H683        H  0.81663251  0.21829458  0.72078538     0.08600
H684        H  0.96198317  0.23232414  0.61680512     0.08600
H685        H  0.94464628  0.25027686  0.57604111     0.08600
H686        H  0.92715102  0.20505324  0.57902701     0.05400
C687        C  0.25080431  0.89748453  0.30501959    -0.20400
C688        C  0.25437048  0.92297384  0.33618752    -0.07000
C689        C  0.22712867  0.91658863  0.36636526     0.13900
C690        C  0.19673295  0.88498498  0.36398000    -0.20500
C691        C  0.19319583  0.85951486  0.33283314    -0.07000
C692        C  0.22044469  0.86584775  0.30275166     0.13900
C693        C  0.21718700  0.83989933  0.26702423    -0.23800
H694        H  0.27175151  0.90256921  0.28188248     0.15200
H695        H  0.17578040  0.87985536  0.38713470     0.15200
C696        C  0.23045620  0.94231943  0.40251879    -0.23800
H697        H  0.24022242  0.84990228  0.24461635     0.05400
H698        H  0.19481278  0.83283097  0.24388094     0.08600
H699        H  0.21398074  0.81685509  0.28479915     0.08600
H700        H  0.23343773  0.96540085  0.38516106     0.08600
H701        H  0.25294831  0.94934716  0.42539846     0.08600
H702        H  0.20752719  0.93212066  0.42517134     0.05400
loop_ 
_geom_bond_atom_site_label_1 
_geom_bond_atom_site_label_2 
_geom_bond_distance 
_geom_bond_site_symmetry_2 
_ccdc_geom_bond_type 
N1            N2   1.324       .  A
N1            C5   1.343       .  A
N1           Cu9   2.066       .  S
N2            C3   1.351       .  A
N2           Cu8   2.101       .  S
C3            C4   1.389       .  A
C3            H6   1.082   1_455  S
C4            C5   1.380       .  A
C4          C121   1.474       .  S
C5            H7   1.082       .  S
Cu8          N11   2.101   1_455  S
Cu9          N19   2.065       .  S
Cu10         N12   2.066       .  S
Cu10         N18   2.066       .  S
N11          N12   1.324   1_655  A
N11          C15   1.352       .  A
N12          C13   1.341   1_455  A
C13          C14   1.379       .  A
C13          H16   1.082       .  S
C14          C15   1.390       .  A
C14         C342   1.474       .  S
C15          H17   1.082       .  S
N18          N19   1.320       .  A
N18          C22   1.345       .  A
N19          C20   1.344       .  A
C20          C21   1.383       .  A
C20          H23   1.082       .  S
C21          C22   1.383       .  A
C21         C691   1.475       .  S
C22          H24   1.082       .  S
N25          N26   1.324       .  A
N25          C29   1.342       .  A
N25         Cu33   2.067       .  S
N26          C27   1.351       .  A
N26         Cu32   2.099       .  S
C27          C28   1.389       .  A
C27          H30   1.082       .  S
C28          C29   1.379       .  A
C28         C108   1.474       .  S
C29          H31   1.082       .  S
Cu32         N35   2.099       .  S
Cu33         N43   2.067   1_545  S
Cu34         N36   2.064       .  S
Cu34         N42   2.064       .  S
N35          N36   1.323       .  A
N35          C39   1.351       .  A
N36          C37   1.342       .  A
C37          C38   1.379       .  A
C37          H40   1.082       .  S
C38          C39   1.389       .  A
C38         C282   1.474       .  S
C39          H41   1.082       .  S
N42          N43   1.320   1_545  A
N42          C46   1.344   1_545  A
N43          C44   1.345       .  A
C44          C45   1.384       .  A
C44          H47   1.082       .  S
C45          C46   1.383       .  A
C45         C688   1.476       .  S
C46          H48   1.081       .  S
N49          N50   1.323       .  A
N49          C53   1.342       .  A
N49         Cu57   2.061       .  S
N50          C51   1.350       .  A
N50         Cu56   2.100       .  S
C51          C52   1.389       .  A
C51          H54   1.082       .  S
C52          C53   1.379       .  A
C52         C122   1.473       .  S
C53          H55   1.082       .  S
Cu56         N59   2.100       .  S
Cu57         N67   2.062   1_455  S
Cu58         N60   2.067       .  S
Cu58         N66   2.067       .  S
N59          N60   1.323       .  A
N59          C63   1.351       .  A
N60          C61   1.343       .  A
C61          C62   1.380       .  A
C61          H64   1.082       .  S
C62          C63   1.390       .  A
C62         C529   1.475       .  S
C63          H65   1.082       .  S
N66          N67   1.320   1_455  A
N66          C70   1.344   1_455  A
N67          C68   1.344       .  A
C68          C69   1.383       .  A
C68          H71   1.082       .  S
C69          C70   1.384       .  A
C69         C672   1.476       .  S
C70          H72   1.081       .  S
N73          N74   1.324       .  A
N73          C77   1.342       .  A
N73         Cu81   2.060       .  S
N74          C75   1.352       .  A
N74         Cu80   2.108       .  S
C75          C76   1.391       .  A
C75          H78   1.082   1_545  S
C76          C77   1.378       .  A
C76         C107   1.474       .  S
C77          H79   1.082       .  S
Cu80         N83   2.108   1_545  S
Cu81         N91   2.060       .  S
Cu82         N84   2.067       .  S
Cu82         N90   2.067       .  S
N83          N84   1.324   1_565  A
N83          C87   1.353       .  A
N84          C85   1.342   1_545  A
C85          C86   1.379       .  A
C85          H88   1.082       .  S
C86          C87   1.391       .  A
C86         C465   1.478       .  S
C87          H89   1.082       .  S
N90          N91   1.319       .  A
N90          C94   1.344       .  A
N91          C92   1.343       .  A
C92          C93   1.383       .  A
C92          H95   1.081       .  S
C93          C94   1.384       .  A
C93         C675   1.475       .  S
C94          H96   1.082       .  S
O97        Cu105   2.015       .  S
O97         C107   1.277       .  A
O98        Cu105   2.013       .  S
O98         C108   1.279       .  A
O99        Cu105   2.010       .  S
O99         C109   1.279       .  A
O100       Cu105   2.015       .  S
O100        C110   1.277       .  A
O101       Cu106   2.019       .  S
O101        C110   1.280       .  A
O102       Cu106   2.022       .  S
O102        C109   1.278       .  A
O103       Cu106   2.017       .  S
O103        C108   1.277       .  A
O104       Cu106   2.017       .  S
O104        C107   1.280       .  A
Cu105      Cu106   2.374       .  S
C109        C310   1.474       .  S
C110        C472   1.475       .  S
O111       Cu119   2.019       .  S
O111        C121   1.278       .  A
O112       Cu119   2.015       .  S
O112        C122   1.279       .  A
O113       Cu119   2.013       .  S
O113        C123   1.279       .  A
O114       Cu119   2.017       .  S
O114        C124   1.277       .  A
O115       Cu120   2.017       .  S
O115        C124   1.279       .  A
O116       Cu120   2.016       .  S
O116        C123   1.277       .  A
O117       Cu120   2.014       .  S
O117        C122   1.277       .  A
O118       Cu120   2.013       .  S
O118        C121   1.279       .  A
Cu119      Cu120   2.374       .  S
C123        C410   1.473       .  S
C124        C224   1.475       .  S
N125        N126   1.325   1_565  A
N125        C129   1.344       .  A
N125       Cu133   2.074   1_565  S
N126        C127   1.351   1_545  A
N126       Cu132   2.102   1_556  S
C127        C128   1.389       .  A
C127        H130   1.082       .  S
C128        C129   1.381       .  A
C128        C467   1.476       .  S
C129        H131   1.082       .  S
Cu132       N135   2.102       .  S
Cu133       N143   2.074       .  S
Cu134       N136   2.064       .  S
Cu134       N142   2.064       .  S
N135        N136   1.323       .  A
N135        C139   1.351       .  A
N136        C137   1.343       .  A
C137        C138   1.379       .  A
C137        H140   1.082       .  S
C138        C139   1.391       .  A
C138        C355   1.475       .  S
C139        H141   1.082       .  S
N142        N143   1.320   1_554  A
N142        C146   1.343       .  A
N143        C144   1.346       .  A
C144        C145   1.386   1_556  A
C144        H147   1.083       .  S
C145        C146   1.384       .  A
C145        C659   1.481   1_554  S
C146        H148   1.081       .  S
N149        N150   1.324       .  A
N149        C153   1.343       .  A
N149       Cu157   2.075       .  S
N150        C151   1.351       .  A
N150       Cu156   2.098       .  S
C151        C152   1.389       .  A
C151        H154   1.082       .  S
C152        C153   1.381       .  A
C152        C280   1.476       .  S
C153        H155   1.082       .  S
Cu156       N159   2.098   1_554  S
Cu157       N167   2.075       .  S
Cu158       N160   2.066   1_545  S
Cu158       N166   2.066       .  S
N159        N160   1.324   1_545  A
N159        C163   1.350   1_545  A
N160        C161   1.342       .  A
C161        C162   1.379       .  A
C161        H164   1.082       .  S
C162        C163   1.388       .  A
C162        C541   1.473       .  S
C163        H165   1.082       .  S
N166        N167   1.320   1_556  A
N166        C170   1.344       .  A
N167        C168   1.345       .  A
C168        C169   1.386   1_554  A
C168        H171   1.083       .  S
C169        C170   1.385       .  A
C169        C656   1.482       .  S
C170        H172   1.081       .  S
N173        N174   1.323       .  A
N173        C177   1.340       .  A
N173       Cu181   2.058       .  S
N174        C175   1.352       .  A
N174       Cu180   2.103   1_556  S
C175        C176   1.390       .  A
C175        H178   1.082       .  S
C176        C177   1.377       .  A
C176        C527   1.472       .  S
C177        H179   1.082       .  S
Cu180       N183   2.104       .  S
Cu181       N191   2.057       .  S
Cu182       N184   2.072   1_455  S
Cu182       N190   2.071       .  S
N183        N184   1.324   1_455  A
N183        C187   1.352   1_455  A
N184        C185   1.343       .  A
C185        C186   1.381       .  A
C185        H188   1.082       .  S
C186        C187   1.390       .  A
C186        C358   1.477       .  S
C187        H189   1.082       .  S
N190        N191   1.319   1_554  A
N190        C194   1.344       .  A
N191        C192   1.343       .  A
C192        C193   1.383       .  A
C192        H195   1.082       .  S
C193        C194   1.386   1_556  A
C193        C640   1.478       .  S
C194        H196   1.081       .  S
N197        N198   1.324   1_655  A
N197        C201   1.342       .  A
N197       Cu205   2.065   1_655  S
N198        C199   1.350   1_455  A
N198       Cu204   2.098   1_554  S
C199        C200   1.388       .  A
C199        H202   1.082       .  S
C200        C201   1.379       .  A
C200        C344   1.472       .  S
C201        H203   1.082       .  S
Cu204       N207   2.098       .  S
Cu205       N215   2.065       .  S
Cu206       N208   2.057       .  S
Cu206       N214   2.057   1_556  S
N207        N208   1.323       .  A
N207        C211   1.351       .  A
N208        C209   1.340       .  A
C209        C210   1.377       .  A
C209        H212   1.082       .  S
C210        C211   1.389       .  A
C210        C544   1.471       .  S
C211        H213   1.082       .  S
N214        N215   1.318       .  A
N214        C218   1.344   1_554  A
N215        C216   1.342       .  A
C216        C217   1.386       .  A
C216        H219   1.082       .  S
C217        C218   1.385   1_554  A
C217        C643   1.481       .  S
C218        H220   1.080       .  S
N221        N222   1.324       .  A
N221        C225   1.343       .  A
N221       Cu229   2.071       .  S
N222        C223   1.351       .  A
N222       Cu228   2.100       .  S
C223        C224   1.389       .  A
C223        H226   1.082   1_455  S
C224        C225   1.380       .  A
C225        H227   1.082       .  S
Cu228       N231   2.099   1_455  S
Cu229       N239   2.071       .  S
Cu230       N232   2.068       .  S
Cu230       N238   2.068       .  S
N231        N232   1.323   1_655  A
N231        C235   1.351       .  A
N232        C233   1.343   1_455  A
C233        C234   1.380       .  A
C233        H236   1.082       .  S
C234        C235   1.389       .  A
C234        C356   1.475       .  S
C235        H237   1.082       .  S
N238        N239   1.320       .  A
N238        C242   1.344       .  A
N239        C240   1.345       .  A
C240        C241   1.384       .  A
C240        H243   1.083       .  S
C241        C242   1.384       .  A
C241        C624   1.479       .  S
C242        H244   1.081       .  S
N245        N246   1.324       .  A
N245        C249   1.342       .  A
N245       Cu253   2.068       .  S
N246        C247   1.350       .  A
N246       Cu252   2.097       .  S
C247        C248   1.389       .  A
C247        H250   1.082       .  S
C248        C249   1.380       .  A
C248        C279   1.473       .  S
C249        H251   1.082       .  S
Cu252       N255   2.097       .  S
Cu253       N263   2.069       .  S
Cu254       N256   2.070       .  S
Cu254       N262   2.070       .  S
N255        N256   1.323       .  A
N255        C259   1.351       .  A
N256        C257   1.343       .  A
C257        C258   1.381       .  A
C257        H260   1.082       .  S
C258        C259   1.389       .  A
C258        C556   1.475       .  S
C259        H261   1.082       .  S
N262        N263   1.320       .  A
N262        C266   1.345       .  A
N263        C264   1.345       .  A
C264        C265   1.384       .  A
C264        H267   1.083       .  S
C265        C266   1.385       .  A
C265        C627   1.479       .  S
C266        H268   1.081       .  S
O269       Cu277   2.015       .  S
O269        C279   1.277       .  A
O270       Cu277   2.016       .  S
O270        C280   1.279       .  A
O271       Cu277   2.017       .  S
O271        C281   1.280       .  A
O272       Cu277   2.017       .  S
O272        C282   1.277       .  A
O273       Cu278   2.014       .  S
O273        C282   1.279       .  A
O274       Cu278   2.019       .  S
O274        C281   1.278       .  A
O275       Cu278   2.020       .  S
O275        C280   1.278       .  A
O276       Cu278   2.015       .  S
O276        C279   1.279       .  A
Cu277      Cu278   2.374       .  S
C281        C362   1.476       .  S
N283        N284   1.324       .  A
N283        C287   1.341       .  A
N283       Cu291   2.069       .  S
N284        C285   1.351       .  A
N284       Cu290   2.099       .  S
C285        C286   1.388       .  A
C285        H288   1.082       .  S
C286        C287   1.379       .  A
C286        C343   1.472       .  S
C287        H289   1.082       .  S
Cu290       N293   2.098       .  S
Cu291       N301   2.069       .  S
Cu292       N294   2.056       .  S
Cu292       N300   2.056       .  S
N293        N294   1.323       .  A
N293        C297   1.351       .  A
N294        C295   1.341       .  A
C295        C296   1.378       .  A
C295        H298   1.082       .  S
C296        C297   1.390       .  A
C296        C557   1.471       .  S
C297        H299   1.082       .  S
N300        N301   1.318       .  A
N300        C304   1.342       .  A
N301        C302   1.344       .  A
C302        C303   1.389       .  A
C302        H305   1.082       .  S
C303        C304   1.385       .  A
C303        C608   1.484       .  S
C304        H306   1.079       .  S
N307        N308   1.325       .  A
N307        C311   1.341       .  A
N307       Cu315   2.069       .  S
N308        C309   1.352       .  A
N308       Cu314   2.106       .  S
C309        C310   1.390       .  A
C309        H312   1.082       .  S
C310        C311   1.378       .  A
C311        H313   1.082       .  S
Cu314       N317   2.105       .  S
Cu315       N325   2.069   1_545  S
Cu316       N318   2.056       .  S
Cu316       N324   2.056       .  S
N317        N318   1.323       .  A
N317        C321   1.352       .  A
N318        C319   1.341       .  A
C319        C320   1.378       .  A
C319        H322   1.082       .  S
C320        C321   1.391       .  A
C320        C357   1.474       .  S
C321        H323   1.082       .  S
N324        N325   1.318   1_545  A
N324        C328   1.342   1_545  A
N325        C326   1.345       .  A
C326        C327   1.388       .  A
C326        H329   1.082       .  S
C327        C328   1.385       .  A
C327        C611   1.484       .  S
C328        H330   1.079       .  S
O331       Cu339   2.020       .  S
O331        C341   1.280       .  A
O332       Cu339   2.021       .  S
O332        C342   1.278       .  A
O333       Cu339   2.020       .  S
O333        C343   1.278       .  A
O334       Cu339   2.017       .  S
O334        C344   1.280       .  A
O335       Cu340   2.010       .  S
O335        C344   1.276       .  A
O336       Cu340   2.006       .  S
O336        C343   1.278       .  A
O337       Cu340   2.011       .  S
O337        C342   1.279       .  A
O338       Cu340   2.013       .  S
O338        C341   1.276       .  A
Cu339      Cu340   2.374       .  S
C341        C396   1.475       .  S
O345       Cu353   2.013       .  S
O345        C355   1.277       .  A
O346       Cu353   2.012       .  S
O346        C356   1.279       .  A
O347       Cu353   2.019       .  S
O347        C357   1.280       .  A
O348       Cu353   2.026       .  S
O348        C358   1.279       .  A
O349       Cu354   2.013       .  S
O349        C358   1.279       .  A
O350       Cu354   2.013       .  S
O350        C357   1.276       .  A
O351       Cu354   2.021       .  S
O351        C356   1.278       .  A
O352       Cu354   2.021       .  S
O352        C355   1.280       .  A
Cu353      Cu354   2.374       .  S
N359        N360   1.324       .  A
N359        C363   1.343       .  A
N359       Cu367   2.069       .  S
N360        C361   1.352       .  A
N360       Cu366   2.105       .  S
C361        C362   1.390       .  A
C361        H364   1.082       .  S
C362        C363   1.380       .  A
C363        H365   1.082       .  S
Cu366       N369   2.105   1_554  S
Cu367       N377   2.068       .  S
Cu368       N370   2.064       .  S
Cu368       N376   2.064   1_556  S
N369        N370   1.324       .  A
N369        C373   1.352       .  A
N370        C371   1.342       .  A
C371        C372   1.379       .  A
C371        H374   1.082       .  S
C372        C373   1.391       .  A
C372        C530   1.475       .  S
C373        H375   1.082       .  S
N376        N377   1.320       .  A
N376        C380   1.344   1_554  A
N377        C378   1.345       .  A
C378        C379   1.383       .  A
C378        H381   1.082       .  S
C379        C380   1.383   1_554  A
C379        C592   1.476   1_554  S
C380        H382   1.082       .  S
N383        N384   1.324       .  A
N383        C387   1.342       .  A
N383       Cu391   2.064       .  S
N384        C385   1.353       .  A
N384       Cu390   2.109       .  S
C385        C386   1.392       .  A
C385        H388   1.082       .  S
C386        C387   1.379       .  A
C386        C466   1.477       .  S
C387        H389   1.082       .  S
Cu390       N393   2.109   1_556  S
Cu391       N401   2.064       .  S
Cu392       N394   2.064       .  S
Cu392       N400   2.064   1_554  S
N393        N394   1.324       .  A
N393        C397   1.352       .  A
N394        C395   1.342       .  A
C395        C396   1.378       .  A
C395        H398   1.082       .  S
C396        C397   1.391       .  A
C397        H399   1.082       .  S
N400        N401   1.319       .  A
N400        C404   1.344       .  A
N401        C402   1.344       .  A
C402        C403   1.383       .  A
C402        H405   1.082       .  S
C403        C404   1.384       .  A
C403        C595   1.476       .  S
C404        H406   1.082   1_556  S
N407        N408   1.323       .  A
N407        C411   1.342       .  A
N407       Cu415   2.067       .  S
N408        C409   1.350       .  A
N408       Cu414   2.096       .  S
C409        C410   1.388       .  A
C409        H412   1.082       .  S
C410        C411   1.380       .  A
C411        H413   1.082       .  S
Cu414       N417   2.095       .  S
Cu415       N425   2.066   1_455  S
Cu416       N418   2.062       .  S
Cu416       N424   2.062       .  S
N417        N418   1.323       .  A
N417        C421   1.349       .  A
N418        C419   1.343       .  A
C419        C420   1.380       .  A
C419        H422   1.082       .  S
C420        C421   1.388       .  A
C420        C542   1.473       .  S
C421        H423   1.082       .  S
N424        N425   1.320   1_455  A
N424        C428   1.342   1_455  A
N425        C426   1.345       .  A
C426        C427   1.385       .  A
C426        H429   1.080       .  S
C427        C428   1.383       .  A
C427        C576   1.477       .  S
C428        H430   1.082       .  S
N431        N432   1.324       .  A
N431        C435   1.343       .  A
N431       Cu439   2.066       .  S
N432        C433   1.351       .  A
N432       Cu438   2.107       .  S
C433        C434   1.390       .  A
C433        H436   1.082       .  S
C434        C435   1.380       .  A
C434        C468   1.476       .  S
C435        H437   1.082       .  S
Cu438       N441   2.107       .  S
Cu439       N449   2.066       .  S
Cu440       N442   2.063       .  S
Cu440       N448   2.062       .  S
N441        N442   1.323       .  A
N441        C445   1.352       .  A
N442        C443   1.343       .  A
C443        C444   1.379       .  A
C443        H446   1.082       .  S
C444        C445   1.391       .  A
C444        C555   1.476       .  S
C445        H447   1.082       .  S
N448        N449   1.320       .  A
N448        C452   1.343       .  A
N449        C450   1.344       .  A
C450        C451   1.384       .  A
C450        H453   1.080       .  S
C451        C452   1.382       .  A
C451        C579   1.476       .  S
C452        H454   1.082       .  S
O455       Cu463   2.023       .  S
O455        C465   1.278       .  A
O456       Cu463   2.020       .  S
O456        C466   1.280       .  A
O457       Cu463   2.017       .  S
O457        C467   1.279       .  A
O458       Cu463   2.019       .  S
O458        C468   1.277       .  A
O459       Cu464   2.019       .  S
O459        C468   1.280       .  A
O460       Cu464   2.020       .  S
O460        C467   1.278       .  A
O461       Cu464   2.020       .  S
O461        C466   1.277       .  A
O462       Cu464   2.019       .  S
O462        C465   1.280       .  A
Cu463      Cu464   2.373       .  S
N469        N470   1.324       .  A
N469        C473   1.342       .  A
N469       Cu477   2.067       .  S
N470        C471   1.351       .  A
N470       Cu476   2.105       .  S
C471        C472   1.390       .  A
C471        H474   1.082   1_545  S
C472        C473   1.379       .  A
C473        H475   1.082       .  S
Cu476       N479   2.104   1_545  S
Cu477       N487   2.066       .  S
Cu478       N480   2.052       .  S
Cu478       N486   2.052       .  S
N479        N480   1.323   1_565  A
N479        C483   1.352       .  A
N480        C481   1.340   1_545  A
C481        C482   1.376       .  A
C481        H484   1.082       .  S
C482        C483   1.391       .  A
C482        C543   1.471       .  S
C483        H485   1.082       .  S
N486        N487   1.318       .  A
N486        C490   1.342       .  A
N487        C488   1.343       .  A
C488        C489   1.386       .  A
C488        H491   1.082       .  S
C489        C490   1.383       .  A
C489        C563   1.478       .  S
C490        H492   1.080       .  S
N493        N494   1.324       .  A
N493        C497   1.341       .  A
N493       Cu501   2.061       .  S
N494        C495   1.352       .  A
N494       Cu500   2.106       .  S
C495        C496   1.391       .  A
C495        H498   1.082       .  S
C496        C497   1.378       .  A
C496        C528   1.474       .  S
C497        H499   1.082       .  S
Cu500       N503   2.106       .  S
Cu501       N511   2.061       .  S
Cu502       N504   2.065       .  S
Cu502       N510   2.064       .  S
N503        N504   1.324       .  A
N503        C507   1.352       .  A
N504        C505   1.342       .  A
C505        C506   1.379       .  A
C505        H508   1.082       .  S
C506        C507   1.390       .  A
C506        C558   1.475       .  S
C507        H509   1.082       .  S
N510        N511   1.319       .  A
N510        C514   1.343       .  A
N511        C512   1.343       .  A
C512        C513   1.384       .  A
C512        H515   1.082       .  S
C513        C514   1.385       .  A
C513        C560   1.478       .  S
C514        H516   1.081       .  S
O517       Cu525   2.010       .  S
O517        C527   1.279       .  A
O518       Cu525   2.015       .  S
O518        C528   1.277       .  A
O519       Cu525   2.017       .  S
O519        C529   1.277       .  A
O520       Cu525   2.016       .  S
O520        C530   1.280       .  A
O521       Cu526   2.019       .  S
O521        C530   1.277       .  A
O522       Cu526   2.018       .  S
O522        C529   1.280       .  A
O523       Cu526   2.016       .  S
O523        C528   1.280       .  A
O524       Cu526   2.017       .  S
O524        C527   1.277       .  A
Cu525      Cu526   2.374       .  S
O531       Cu539   2.011       .  S
O531        C541   1.279       .  A
O532       Cu539   2.013       .  S
O532        C542   1.277       .  A
O533       Cu539   2.011       .  S
O533        C543   1.276       .  A
O534       Cu539   2.007       .  S
O534        C544   1.279       .  A
O535       Cu540   2.015       .  S
O535        C544   1.277       .  A
O536       Cu540   2.013       .  S
O536        C543   1.280       .  A
O537       Cu540   2.015       .  S
O537        C542   1.279       .  A
O538       Cu540   2.017       .  S
O538        C541   1.278       .  A
Cu539      Cu540   2.375       .  S
O545       Cu553   2.021       .  S
O545        C555   1.280       .  A
O546       Cu553   2.021       .  S
O546        C556   1.278       .  A
O547       Cu553   2.012       .  S
O547        C557   1.276       .  A
O548       Cu553   2.013       .  S
O548        C558   1.279       .  A
O549       Cu554   2.020       .  S
O549        C558   1.278       .  A
O550       Cu554   2.014       .  S
O550        C557   1.279       .  A
O551       Cu554   2.013       .  S
O551        C556   1.279       .  A
O552       Cu554   2.016       .  S
O552        C555   1.277       .  A
Cu553      Cu554   2.374       .  S
C559        C560   1.403       .  A
C559        C564   1.403       .  A
C559        H566   1.084       .  S
C560        C561   1.414       .  A
C561        C562   1.402       .  A
C561        C568   1.507       .  S
C562        C563   1.402       .  A
C562        H567   1.084       .  S
C563        C564   1.416       .  A
C564        C565   1.508       .  S
C565        H569   1.111       .  S
C565        H570   1.107       .  S
C565        H571   1.110       .  S
C568        H572   1.110       .  S
C568        H573   1.107       .  S
C568        H574   1.111       .  S
C575        C576   1.403       .  A
C575        C580   1.401       .  A
C575        H582   1.084       .  S
C576        C577   1.414       .  A
C577        C578   1.404       .  A
C577        C584   1.507       .  S
C578        C579   1.403       .  A
C578        H583   1.084       .  S
C579        C580   1.413       .  A
C580        C581   1.507       .  S
C581        H585   1.111       .  S
C581        H586   1.108       .  S
C581        H587   1.110       .  S
C584        H588   1.110       .  S
C584        H589   1.108       .  S
C584        H590   1.111       .  S
C591        C592   1.402       .  A
C591        C596   1.404       .  A
C591        H598   1.084       .  S
C592        C593   1.413   1_556  A
C593        C594   1.403       .  A
C593        C600   1.507       .  S
C594        C595   1.402   1_554  A
C594        H599   1.084       .  S
C595        C596   1.413       .  A
C596        C597   1.507       .  S
C597        H601   1.111       .  S
C597        H602   1.108       .  S
C597        H603   1.110       .  S
C600        H604   1.110       .  S
C600        H605   1.108       .  S
C600        H606   1.111       .  S
C607        C608   1.403       .  A
C607        C612   1.403       .  A
C607        H614   1.084       .  S
C608        C609   1.417       .  A
C609        C610   1.403       .  A
C609        C616   1.508       .  S
C610        C611   1.403       .  A
C610        H615   1.084       .  S
C611        C612   1.417       .  A
C612        C613   1.508       .  S
C613        H617   1.111       .  S
C613        H618   1.110       .  S
C613        H619   1.107       .  S
C616        H620   1.107       .  S
C616        H621   1.110       .  S
C616        H622   1.111       .  S
C623        C624   1.403       .  A
C623        C628   1.405       .  A
C623        H630   1.084       .  S
C624        C625   1.414       .  A
C625        C626   1.404       .  A
C625        C632   1.507       .  S
C626        C627   1.403       .  A
C626        H631   1.084       .  S
C627        C628   1.414       .  A
C628        C629   1.507       .  S
C629        H633   1.111       .  S
C629        H634   1.110       .  S
C629        H635   1.108       .  S
C632        H636   1.108       .  S
C632        H637   1.110       .  S
C632        H638   1.111       .  S
C639        C640   1.403   1_554  A
C639        C644   1.404       .  A
C639        H646   1.084       .  S
C640        C641   1.413       .  A
C641        C642   1.402       .  A
C641        C648   1.507       .  S
C642        C643   1.404   1_556  A
C642        H647   1.084       .  S
C643        C644   1.416       .  A
C644        C645   1.507       .  S
C645        H649   1.111       .  S
C645        H650   1.110       .  S
C645        H651   1.107       .  S
C648        H652   1.107   1_455  S
C648        H653   1.110       .  S
C648        H654   1.111   1_455  S
C655        C656   1.403   1_554  A
C655        C660   1.404       .  A
C655        H662   1.084       .  S
C656        C657   1.416       .  A
C657        C658   1.405       .  A
C657        C664   1.507       .  S
C658        C659   1.403       .  A
C658        H663   1.084       .  S
C659        C660   1.415   1_556  A
C660        C661   1.508       .  S
C661        H665   1.111       .  S
C661        H666   1.107       .  S
C661        H667   1.110       .  S
C664        H668   1.110       .  S
C664        H669   1.107       .  S
C664        H670   1.111       .  S
C671        C672   1.403       .  A
C671        C676   1.403       .  A
C671        H678   1.084       .  S
C672        C673   1.414       .  A
C673        C674   1.403       .  A
C673        C680   1.507       .  S
C674        C675   1.402       .  A
C674        H679   1.084       .  S
C675        C676   1.413       .  A
C676        C677   1.507       .  S
C677        H681   1.111       .  S
C677        H682   1.110       .  S
C677        H683   1.108       .  S
C680        H684   1.108       .  S
C680        H685   1.110       .  S
C680        H686   1.111       .  S
C687        C688   1.402       .  A
C687        C692   1.403       .  A
C687        H694   1.084       .  S
C688        C689   1.414       .  A
C689        C690   1.403       .  A
C689        C696   1.507       .  S
C690        C691   1.402       .  A
C690        H695   1.084       .  S
C691        C692   1.413       .  A
C692        C693   1.507       .  S
C693        H697   1.111       .  S
C693        H698   1.110       .  S
C693        H699   1.108       .  S
C696        H700   1.108       .  S
C696        H701   1.111       .  S
C696        H702   1.111       .  S
