geometry optimzed in LAMMPS
_audit_creation_date              2020-11-30 
_audit_creation_method            'lammps2cif' 
_symmetry_space_group_name_H-M    'P1' 
_symmetry_Int_Tables_number       1 
_symmetry_cell_setting            triclinic 
loop_ 
_symmetry_equiv_pos_as_xyz 
  x,y,z 
_cell_length_a                    41.49628552 
_cell_length_b                    41.976150752150716 
_cell_length_c                    23.92318160671647 
_cell_angle_alpha                 91.51582131161034 
_cell_angle_beta                  88.6095584964836 
_cell_angle_gamma                 89.61990571119377 
loop_ 
_atom_site_label 
_atom_site_type_symbol 
_atom_site_fract_x 
_atom_site_fract_y 
_atom_site_fract_z 
_atom_site_charge 
C1          C  0.90497913  0.39982764  0.73518387    -0.03100
C2          C  0.04873827  0.41203073  0.76349653    -0.03100
C3          C  0.90431212  0.54343387  0.76294592    -0.03100
C4          C  0.04898864  0.55545849  0.73947994    -0.03100
C5          C  0.40958201  0.90596516  0.25512544    -0.03100
C6          C  0.40527695  0.05159938  0.26517137    -0.03100
C7          C  0.54985841  0.05141640  0.23921407    -0.03100
C8          C  0.55350084  0.90877376  0.25703938    -0.03100
In9        In  0.84562440  0.64569968  0.47836445     1.36900
C10         C  0.85375984  0.60725784  0.56511725     0.76900
O11         O  0.89566585  0.64128049  0.44345423    -0.61500
O12         O  0.88464207  0.68083653  0.49835280    -0.52400
C13         C  0.82939492  0.62783865  0.37541581     0.69600
O14         O  0.81479750  0.61731908  0.41802956    -0.47300
C15         C  0.80031203  0.69022533  0.48812352     0.74300
O16         O  0.85578375  0.59756415  0.51484891    -0.59100
O17         O  0.82997829  0.69643588  0.48687741    -0.49200
O18         O  0.84474780  0.63585882  0.57091737    -0.55600
C19         C  0.90549510  0.66628372  0.46778959     0.84500
O20         O  0.85234449  0.64627593  0.38600709    -0.57500
O21         O  0.79380605  0.66092674  0.48783956    -0.60800
In22       In  0.10489888  0.66562462  0.46019338     1.36900
C23         C  0.09902013  0.63123375  0.55205680     0.76900
O24         O  0.15588611  0.67872642  0.48091322    -0.61500
O25         O  0.12319467  0.71556419  0.46170954    -0.52400
C26         C  0.11763861  0.64629139  0.35490753     0.69600
O27         O  0.12186365  0.62837610  0.39590188    -0.47300
C28         C  0.04207878  0.67697675  0.45826576     0.74300
O29         O  0.11035558  0.61941987  0.50643109    -0.59100
O30         O  0.06104619  0.69552347  0.48331599    -0.49200
O31         O  0.09309924  0.66057801  0.55048250    -0.55600
C32         C  0.15155445  0.70814520  0.47425090     0.84500
O33         O  0.10791870  0.67400467  0.36854718    -0.57500
O34         O  0.05549762  0.65386595  0.43210928    -0.60800
In35       In  0.16923894  0.60103386  0.01675229     1.36900
C36         C  0.13217053  0.59730134  0.92612472     0.76900
O37         O  0.18058846  0.65327427  0.00976785    -0.61500
O38         O  0.21880695  0.61989391  0.00008503    -0.52400
C39         C  0.15017280  0.61100072  0.12385926     0.69600
O40         O  0.13376016  0.61983239  0.08324884    -0.47300
C41         C  0.18691024  0.54026166  0.01370550     0.74300
O42         O  0.12062977  0.60088212  0.97523945    -0.59100
O43         O  0.20727711  0.56236345  0.01577588    -0.49200
O44         O  0.16253492  0.59798752  0.92368432    -0.55600
C45         C  0.21047462  0.64878697  0.00189710     0.84500
O46         O  0.17607309  0.59709914  0.10925789    -0.57500
O47         O  0.15787409  0.54923290  0.01499807    -0.60800
In48       In  0.15859967  0.35135442  0.03370368     1.36900
C49         C  0.11115977  0.36580119  0.96395886     0.76900
O50         O  0.17704434  0.39729659  0.06834079    -0.61500
O51         O  0.18569022  0.38651411  0.98188569    -0.52400
C52         C  0.14098197  0.34246764  0.13984598     0.69600
O53         O  0.12516636  0.33101192  0.09960689    -0.47300
C54         C  0.19869926  0.30145314  0.01726748     0.74300
O55         O  0.11354299  0.37829110  0.01206051    -0.59100
O56         O  0.20790071  0.32998256  0.01750439    -0.49200
O57         O  0.13109702  0.34346321  0.95361450    -0.55600
C58         C  0.18783972  0.40657698  0.02191305     0.84500
O59         O  0.16511527  0.35849737  0.12531297    -0.57500
O60         O  0.16856356  0.29851442  0.02196098    -0.60800
In61       In  0.78592872  0.60348802  0.03590319     1.36900
C62         C  0.83148809  0.59321938  0.95705851     0.76900
O63         O  0.79783311  0.55576316  0.06732502    -0.61500
O64         O  0.75646384  0.55998422  0.01724688    -0.52400
C65         C  0.79568016  0.61615407  0.14352023     0.69600
O66         O  0.81624128  0.62209622  0.10545153    -0.47300
C67         C  0.74399169  0.64872827  0.00836869     0.74300
O68         O  0.83701121  0.60943443  0.00088255    -0.59100
O69         O  0.73624626  0.62008669  0.01460441    -0.49200
O70         O  0.80245961  0.58568647  0.95130025    -0.55600
C71         C  0.77514998  0.54183455  0.04281834     0.84500
O72         O  0.76946589  0.60517350  0.12600934    -0.57500
O73         O  0.77360698  0.65402379  0.01454705    -0.60800
In74       In  0.79565665  0.34404659  0.02261799     1.36900
C75         C  0.83299654  0.34935905  0.93110363     0.76900
O76         O  0.78046862  0.29328825  0.00805032    -0.61500
O77         O  0.74455195  0.32959310  0.01077565    -0.52400
C78         C  0.81095417  0.32801911  0.12550507     0.69600
O79         O  0.82751982  0.31901941  0.08285504    -0.47300
C80         C  0.78272098  0.40554893  0.03552314     0.74300
O81         O  0.84459102  0.34646164  0.97895806    -0.59100
O82         O  0.76316560  0.38638174  0.01352110    -0.49200
O83         O  0.80282216  0.34672926  0.93032954    -0.55600
C84         C  0.75086755  0.30021884  0.00603632     0.84500
O85         O  0.78695006  0.34512180  0.11461839    -0.57500
O86         O  0.80875955  0.39317368  0.05055322    -0.60800
In87       In  0.84732558  0.28293217  0.46028456     1.36900
C88         C  0.85381367  0.31855165  0.55271011     0.76900
O89         O  0.79679394  0.26903345  0.48235795    -0.61500
O90         O  0.83141519  0.23246275  0.46657130    -0.52400
C91         C  0.83431397  0.29740059  0.35600524     0.69600
O92         O  0.82634748  0.31544372  0.39733409    -0.47300
C93         C  0.91019168  0.27648072  0.45320490     0.74300
O94         O  0.84068831  0.32927540  0.50974903    -0.59100
O95         O  0.89229998  0.25457899  0.47115633    -0.49200
O96         O  0.86026628  0.28926433  0.54917439    -0.55600
C97         C  0.80243347  0.23950024  0.47864175     0.84500
O98         O  0.84900225  0.27227724  0.36846886    -0.57500
O99         O  0.89544511  0.30050010  0.43571115    -0.60800
In100      In  0.10903673  0.30106369  0.48048929     1.36900
C101        C  0.10286071  0.34173788  0.56740214     0.76900
O102        O  0.06020826  0.31577923  0.45620275    -0.61500
O103        O  0.06550261  0.27031903  0.49191019    -0.52400
C104        C  0.12229334  0.31207183  0.37313054     0.69600
O105        O  0.13163687  0.33045063  0.41221473    -0.47300
C106        C  0.15342991  0.25730874  0.49957979     0.74300
O107        O  0.10882941  0.35077846  0.51839560    -0.59100
O108        O  0.12392006  0.25098466  0.49557087    -0.49200
O109        O  0.10281455  0.31195780  0.57248029    -0.55600
C110        C  0.04696991  0.29022527  0.47018542     0.84500
O111        O  0.10790462  0.28773585  0.38993835    -0.57500
O112        O  0.16011133  0.28651374  0.49597278    -0.60800
In113      In  0.66273441  0.83713357  0.52119857     1.36900
C114        C  0.62675944  0.84670823  0.43318642     0.76900
O115        O  0.64492428  0.88479092  0.54636965    -0.61500
O116        O  0.69351525  0.88070199  0.51565970    -0.52400
C117        C  0.65012014  0.82624464  0.62845614     0.69600
O118        O  0.63079521  0.81825478  0.59040687    -0.47300
C119        C  0.70561203  0.79144788  0.50114737     0.74300
O120        O  0.61533741  0.83342672  0.47613617    -0.59100
O121        O  0.71291245  0.82049918  0.50458200    -0.49200
O122        O  0.65680052  0.85077338  0.43297046    -0.55600
C123        C  0.67067942  0.89877847  0.53292862     0.84500
O124        O  0.67547085  0.83923888  0.61072130    -0.57500
O125        O  0.67572100  0.78592081  0.50307521    -0.60800
In126      In  0.66241311  0.09764682  0.52387258     1.36900
C127        C  0.62751410  0.09222813  0.43330696     0.76900
O128        O  0.67724794  0.14647386  0.50009648    -0.61500
O129        O  0.71370435  0.11275627  0.51808989    -0.52400
C130        C  0.64462601  0.11433056  0.62781927     0.69600
O131        O  0.62843486  0.12217863  0.58622536    -0.47300
C132        C  0.66881031  0.03547114  0.52864895     0.74300
O133        O  0.61515212  0.09948962  0.48073597    -0.59100
O134        O  0.69190797  0.05266606  0.51246473    -0.49200
O135        O  0.65781872  0.09011832  0.43185231    -0.55600
C136        C  0.70700614  0.14070587  0.50389737     0.84500
O137        O  0.67003840  0.09882285  0.61543968    -0.57500
O138        O  0.64391079  0.05049566  0.54532327    -0.60800
In139      In  0.60214972  0.16575285  0.96439821     1.36900
C140        C  0.59835531  0.13207926  0.05693848     0.76900
O141        O  0.65333002  0.17930182  0.97945354    -0.61500
O142        O  0.61917437  0.21647048  0.97031140    -0.52400
C143        C  0.61482360  0.14861101  0.85882519     0.69600
O144        O  0.62606210  0.13368461  0.89929200    -0.47300
C145        C  0.53883073  0.16904561  0.96358206     0.74300
O146        O  0.60943376  0.12059306  0.01089345    -0.59100
O147        O  0.55569911  0.19349861  0.97377998    -0.49200
O148        O  0.59216526  0.16150741  0.05618438    -0.55600
C149        C  0.64832542  0.20886823  0.97686233     0.84500
O150        O  0.59660515  0.17179276  0.87252500    -0.57500
O151        O  0.55468428  0.14395919  0.95136933    -0.60800
In152      In  0.33737594  0.15241602  0.99121435     1.36900
C153        C  0.34211827  0.11547921  0.07895691     0.76900
O154        O  0.38690666  0.13506143  0.97053351    -0.61500
O155        O  0.38164642  0.18270860  0.00202615    -0.52400
C156        C  0.32453520  0.13843200  0.88583618     0.69600
O157        O  0.31160668  0.12350418  0.92567285    -0.47300
C158        C  0.29340870  0.19865529  0.00388166     0.74300
O159        O  0.33981918  0.10385461  0.03006986    -0.59100
O160        O  0.32337214  0.20367173  0.00325287    -0.49200
O161        O  0.33728806  0.14517065  0.08277205    -0.55600
C162        C  0.40056956  0.16046674  0.98559170     0.84500
O163        O  0.34382493  0.15981697  0.90098479    -0.57500
O164        O  0.28592724  0.16949882  0.00248957    -0.60800
In165      In  0.60772031  0.79682209  0.97001306     1.36900
C166        C  0.60604041  0.83603824  0.05947211     0.76900
O167        O  0.55932497  0.81581138  0.95301649    -0.61500
O168        O  0.56230988  0.76946484  0.98654627    -0.52400
C169        C  0.62051192  0.80937612  0.86356328     0.69600
O170        O  0.63376954  0.82442813  0.90322337    -0.47300
C171        C  0.65072341  0.75066386  0.98353552     0.74300
O172        O  0.60971546  0.84582297  0.01029041    -0.59100
O173        O  0.62120407  0.74514359  0.97639065    -0.49200
O174        O  0.60613941  0.80614291  0.06311938    -0.55600
C175        C  0.54449891  0.79167501  0.96993479     0.84500
O176        O  0.60165098  0.78771542  0.87874431    -0.57500
O177        O  0.65780644  0.77984992  0.98409556    -0.60800
In178      In  0.34265162  0.80015162  0.97736902     1.36900
C179        C  0.34699680  0.83808421  0.06770808     0.76900
O180        O  0.29293338  0.78216158  0.99676094    -0.61500
O181        O  0.33086273  0.74845456  0.98294546    -0.52400
C182        C  0.32884017  0.81349013  0.87260269     0.69600
O183        O  0.31555161  0.82804488  0.91414212    -0.47300
C184        C  0.40585169  0.79443095  0.97468110     0.74300
O185        O  0.34348538  0.84915247  0.01964895    -0.59100
O186        O  0.38799852  0.77231836  0.99204917    -0.49200
O187        O  0.34378118  0.80829767  0.06944087    -0.55600
C188        C  0.30122725  0.75312725  0.99360534     0.84500
O189        O  0.34847466  0.79205177  0.88558843    -0.57500
O190        O  0.39110081  0.81791593  0.95560178    -0.60800
In191      In  0.29202032  0.84985957  0.53412862     1.36900
C192        C  0.33288600  0.85765203  0.44761549     0.76900
O193        O  0.27796077  0.79904753  0.51280228    -0.61500
O194        O  0.24166521  0.83453926  0.51948171    -0.52400
C195        C  0.30391168  0.83465644  0.63874425     0.69600
O196        O  0.32300479  0.82717033  0.59839913    -0.47300
C197        C  0.27845061  0.91156995  0.54433396     0.74300
O198        O  0.34276614  0.85141597  0.49563196    -0.59100
O199        O  0.26086813  0.89234041  0.51790802    -0.49200
O200        O  0.30271478  0.85676447  0.44385951    -0.55600
C201        C  0.24819557  0.80547743  0.51117476     0.84500
O202        O  0.27890477  0.84939536  0.62487097    -0.57500
O203        O  0.30218309  0.89885529  0.56719144    -0.60800
In204      In  0.28841394  0.10991602  0.54385368     1.36900
C205        C  0.32773812  0.10623971  0.45458415     0.76900
O206        O  0.30269300  0.06112186  0.56750905    -0.61500
O207        O  0.25801556  0.06663981  0.52710757    -0.52400
C208        C  0.29912848  0.12266682  0.65031336     0.69600
O209        O  0.31898078  0.12992158  0.61181391    -0.47300
C210        C  0.24612973  0.15628130  0.52998684     0.74300
O211        O  0.33834628  0.10948254  0.50340271    -0.59100
O212        O  0.23843510  0.12724987  0.53010056    -0.49200
O213        O  0.29748595  0.10776885  0.45208456    -0.55600
C214        C  0.27772382  0.04801284  0.54923063     0.84500
O215        O  0.27380220  0.10941539  0.63369313    -0.57500
O216        O  0.27590238  0.16146520  0.53472055    -0.60800
C217        C  0.27273183  0.94629647  0.54792346    -0.06800
C218        C  0.28339282  0.96292326  0.59554368    -0.17900
C219        C  0.28315396  0.99615996  0.59860017     0.10400
C220        C  0.27274821  0.01344573  0.55243846    -0.06700
C221        C  0.26047662  0.99697231  0.50596598    -0.17900
C222        C  0.26022841  0.96362377  0.50326783     0.10500
S223        S  0.29654434  0.01504480  0.66248432    -0.32900
S224        S  0.24713541  0.94480307  0.43934974    -0.32900
H225        H  0.22291646  0.92725482  0.46654647     0.28500
H226        H  0.27517397  0.04113129  0.66064624     0.28500
H227        H  0.29248169  0.94989918  0.63045464     0.19100
H228        H  0.25256656  0.01010676  0.47031780     0.19100
C229        C  0.32235769  0.82006252  0.81310174    -0.06800
C230        C  0.33607836  0.79931458  0.77167823    -0.17900
C231        C  0.33020550  0.80294545  0.71484386     0.10400
C232        C  0.31028931  0.82818149  0.69807545    -0.06700
C233        C  0.29654687  0.84892476  0.73929570    -0.17900
C234        C  0.30276582  0.84558138  0.79609042     0.10500
S235        S  0.34779833  0.77374108  0.66646262    -0.32900
S236        S  0.28591695  0.87547442  0.84384502    -0.32900
H237        H  0.31555493  0.88174061  0.86920383     0.28500
H238        H  0.31991493  0.77048654  0.63453517     0.28500
H239        H  0.35114676  0.77955515  0.78356687     0.19100
H240        H  0.28159930  0.86870604  0.72704657     0.19100
C241        C  0.50904242  0.79084706  0.97168544    -0.06800
C242        C  0.49277472  0.82008829  0.97917542    -0.17900
C243        C  0.45929969  0.82167644  0.98276689     0.10400
C244        C  0.44121685  0.79343813  0.97678596    -0.06700
C245        C  0.45735239  0.76402943  0.97053885    -0.17900
C246        C  0.49106931  0.76244222  0.96739979     0.10500
S247        S  0.44139677  0.86036169  0.99781550    -0.32900
S248        S  0.50944319  0.72382774  0.95490705    -0.32900
H249        H  0.53250667  0.73454425  0.91574512     0.28500
H250        H  0.41810154  0.84902189  0.03596812     0.28500
H251        H  0.50629596  0.84197091  0.98393348     0.19100
H252        H  0.44362702  0.74228027  0.96594877     0.19100
C253        C  0.31783949  0.13278999  0.82587033    -0.06800
C254        C  0.33283778  0.15311033  0.78744261    -0.17900
C255        C  0.32666656  0.15104928  0.73047663     0.10400
C256        C  0.30515265  0.12780499  0.71039367    -0.06700
C257        C  0.28990490  0.10756189  0.74859670    -0.17900
C258        C  0.29640445  0.10935294  0.80568992     0.10500
S259        S  0.34614723  0.17969743  0.68643870    -0.32900
S260        S  0.27733290  0.08042086  0.84955278    -0.32900
H261        H  0.30647334  0.07090877  0.87324016     0.28500
H262        H  0.31837766  0.18607372  0.65589007     0.28500
H263        H  0.34921953  0.17139562  0.80183740     0.19100
H264        H  0.27358871  0.08935576  0.73364857     0.19100
C265        C  0.50335171  0.16840721  0.96876472    -0.06800
C266        C  0.48935245  0.13999876  0.98679581    -0.17900
C267        C  0.45613225  0.13733904  0.99481924     0.10400
C268        C  0.43593073  0.16349819  0.98363006    -0.06700
C269        C  0.44981938  0.19220913  0.96667802    -0.17900
C270        C  0.48327731  0.19481413  0.95842046     0.10500
S271        S  0.44121731  0.10022938  0.02136357    -0.32900
S272        S  0.49855165  0.23156948  0.93142223    -0.32900
H273        H  0.52166306  0.21683999  0.89509212     0.28500
H274        H  0.41771826  0.11457923  0.05738463     0.28500
H275        H  0.50451535  0.11977674  0.99611987     0.19100
H276        H  0.43443529  0.21225892  0.95742534     0.19100
C277        C  0.63559663  0.12277170  0.68665149    -0.06800
C278        C  0.66029500  0.12328007  0.72581691    -0.17900
C279        C  0.65423432  0.13213497  0.78173414     0.10400
C280        C  0.62256491  0.14001606  0.79994000    -0.06700
C281        C  0.59773434  0.13964643  0.76111540    -0.17900
C282        C  0.60375570  0.13063058  0.70497465     0.10500
S283        S  0.68830891  0.13486911  0.82692352    -0.32900
S284        S  0.56960010  0.12814408  0.66000770    -0.32900
H285        H  0.57911426  0.09871505  0.63505555     0.28500
H286        H  0.67744640  0.16269997  0.85582769     0.28500
H287        H  0.68487513  0.11765878  0.71250161     0.19100
H288        H  0.57329356  0.14549444  0.77499906     0.19100
C289        C  0.64323192  0.82180914  0.68901280    -0.06800
C290        C  0.61159711  0.81459333  0.70634478    -0.17900
C291        C  0.60317673  0.81192402  0.76304336     0.10400
C292        C  0.62698275  0.81582635  0.80394283    -0.06700
C293        C  0.65836258  0.82375536  0.78701045    -0.17900
C294        C  0.66687346  0.82634152  0.73038623     0.10500
S295        S  0.56131842  0.80504221  0.78052233    -0.32900
S296        S  0.70871688  0.83380305  0.71429729    -0.32900
H297        H  0.71123114  0.80773119  0.67624850     0.28500
H298        H  0.56080983  0.82466344  0.82916078     0.28500
H299        H  0.59299663  0.81175255  0.67562316     0.19100
H300        H  0.67682218  0.82655340  0.81802495     0.19100
C301        C  0.67210553  0.93372601  0.53347890    -0.06800
C302        C  0.64299530  0.94969177  0.52478865    -0.17900
C303        C  0.64174515  0.98252231  0.52054787     0.10400
C304        C  0.67006531  0.00049900  0.52747381    -0.06700
C305        C  0.69949277  0.98469108  0.53517047    -0.17900
C306        C  0.70080822  0.95141932  0.53851008     0.10500
S307        S  0.60358750  0.99955607  0.50206373    -0.32900
S308        S  0.73930124  0.93331427  0.55144905    -0.32900
H309        H  0.72682308  0.91086276  0.58872519     0.28500
H310        H  0.61764573  0.01950001  0.46207976     0.28500
H311        H  0.62100043  0.93635043  0.51878510     0.19100
H312        H  0.72134899  0.99834403  0.54027769     0.19100
C313        C  0.17782166  0.23213468  0.50759856    -0.06800
C314        C  0.16820835  0.20446463  0.53498699    -0.17900
C315        C  0.19001340  0.17971059  0.54400248     0.10400
C316        C  0.22230872  0.18223383  0.52444625    -0.06700
C317        C  0.23201107  0.21000716  0.49751930    -0.17900
C318        C  0.21008526  0.23461748  0.48795590     0.10500
S319        S  0.17528581  0.14626093  0.58265832    -0.32900
S320        S  0.22428763  0.26731074  0.44693462    -0.32900
H321        H  0.19681244  0.26837581  0.41362034     0.28500
H322        H  0.20294359  0.14355685  0.61516596     0.28500
H323        H  0.14357468  0.20230650  0.55047414     0.19100
H324        H  0.25659215  0.21202501  0.48170945     0.19100
C325        C  0.73168475  0.16531769  0.49455181    -0.06800
C326        C  0.72212545  0.19737312  0.50034104    -0.17900
C327        C  0.74448031  0.22201830  0.49724188     0.10400
C328        C  0.77744887  0.21477207  0.48626434    -0.06700
C329        C  0.78687988  0.18262283  0.47958462    -0.17900
C330        C  0.76452744  0.15796968  0.48318920     0.10500
S331        S  0.72907583  0.26188446  0.50908552    -0.32900
S332        S  0.77954013  0.11792397  0.47089696    -0.32900
H333        H  0.75393059  0.10865411  0.43669482     0.28500
H334        H  0.75039403  0.26858246  0.55268120     0.28500
H335        H  0.69706039  0.20336997  0.50940357     0.19100
H336        H  0.81190506  0.17649334  0.47052148     0.19100
C337        C  0.94562115  0.27549522  0.45394929    -0.06800
C338        C  0.96229912  0.29454164  0.41584517    -0.17900
C339        C  0.99551063  0.29899150  0.41899101     0.10400
C340        C  0.01251470  0.28429530  0.46193163    -0.06700
C341        C  0.99614089  0.26417005  0.49868239    -0.17900
C342        C  0.96294989  0.25949943  0.49507675     0.10500
S343        S  0.01567918  0.32266641  0.36671644    -0.32900
S344        S  0.94396318  0.23509380  0.54693837    -0.32900
H345        H  0.93099134  0.21404111  0.50678786     0.28500
H346        H  0.98788084  0.33377244  0.34069217     0.28500
H347        H  0.94907507  0.30634073  0.38376267     0.19100
H348        H  0.00910932  0.25272643  0.53152869     0.19100
C349        C  0.67473289  0.23232805  0.98183668    -0.06800
C350        C  0.70230934  0.22371294  0.01107341    -0.17900
C351        C  0.72732023  0.24531517  0.02018138     0.10400
C352        C  0.72532179  0.27622725  0.99847300    -0.06700
C353        C  0.69802035  0.28471315  0.96855874    -0.17900
C354        C  0.67311608  0.26305743  0.95912968     0.10500
S355        S  0.75999662  0.23256767  0.06280110    -0.32900
S356        S  0.64100421  0.27563243  0.91520264    -0.32900
H357        H  0.63978165  0.24652356  0.88475018     0.28500
H358        H  0.76174992  0.26149590  0.09367163     0.28500
H359        H  0.70394446  0.20026926  0.02875652     0.19100
H360        H  0.69645661  0.30819313  0.95097054     0.19100
C361        C  0.81808538  0.31952980  0.18393556    -0.06800
C362        C  0.79621092  0.33009676  0.22647521    -0.17900
C363        C  0.80031359  0.32249179  0.28233352     0.10400
C364        C  0.82770305  0.30494310  0.29732560    -0.06700
C365        C  0.84961380  0.29417717  0.25515256    -0.17900
C366        C  0.84513443  0.30105487  0.19867006     0.10500
S367        S  0.76856491  0.33404828  0.33165663    -0.32900
S368        S  0.87415243  0.28587115  0.14679962    -0.32900
H369        H  0.89559214  0.27197808  0.18390503     0.28500
H370        H  0.76901334  0.30516290  0.36023343     0.28500
H371        H  0.77502902  0.34375518  0.21611869     0.19100
H372        H  0.87048508  0.28044729  0.26670770     0.19100
C373        C  0.72024924  0.67441978  0.99804056    -0.06800
C374        C  0.72800865  0.70566765  0.01483945    -0.17900
C375        C  0.70581112  0.73073219  0.01136573     0.10400
C376        C  0.67499128  0.72489097  0.98959294    -0.06700
C377        C  0.66739405  0.69374797  0.97155454    -0.17900
C378        C  0.68960472  0.66849799  0.97530014     0.10500
S379        S  0.71728903  0.76927632  0.03885119    -0.32900
S380        S  0.67867055  0.62928527  0.94928975    -0.32900
H381        H  0.64887636  0.63785391  0.92698750     0.28500
H382        H  0.74758690  0.76838453  0.01105830     0.28500
H383        H  0.75119952  0.71047450  0.03302583     0.19100
H384        H  0.64399819  0.68922985  0.95405653     0.19100
C385        C  0.77229334  0.50689067  0.04286190    -0.06800
C386        C  0.78466613  0.49093416  0.08856515    -0.17900
C387        C  0.78654686  0.45776408  0.08871257     0.10400
C388        C  0.77623241  0.43990761  0.04178290    -0.06700
C389        C  0.76223889  0.45562360  0.99731975    -0.17900
C390        C  0.76063373  0.48890781  0.99685893     0.10500
S391        S  0.80213233  0.43968371  0.15016534    -0.32900
S392        S  0.74642298  0.50668756  0.93419518    -0.32900
H393        H  0.77267123  0.52747746  0.92875318     0.28500
H394        H  0.78223591  0.41270611  0.14730181     0.28500
H395        H  0.79336454  0.50444790  0.12430849     0.19100
H396        H  0.75451210  0.44198976  0.96099377     0.19100
C397        C  0.26901587  0.22479163  0.00514990    -0.06800
C398        C  0.23807338  0.21912497  0.02771160    -0.17900
C399        C  0.21464600  0.24339927  0.03231022     0.10400
C400        C  0.22180416  0.27418566  0.01268406    -0.06700
C401        C  0.25253693  0.27957003  0.98908113    -0.17900
C402        C  0.27585180  0.25534023  0.98429659     0.10500
S403        S  0.17691819  0.23384673  0.06652860    -0.32900
S404        S  0.31316906  0.26474320  0.94845881    -0.32900
H405        H  0.31429811  0.23617230  0.91626540     0.28500
H406        H  0.17675419  0.26107782  0.10217803     0.28500
H407        H  0.23237937  0.19584572  0.04364780     0.19100
H408        H  0.25834715  0.30281610  0.97310647     0.19100
C409        C  0.13321911  0.33638440  0.19925684    -0.06800
C410        C  0.12143008  0.30636762  0.21318696    -0.17900
C411        C  0.11790180  0.29744443  0.26915336     0.10400
C412        C  0.12648242  0.31921544  0.31274445    -0.06700
C413        C  0.13756350  0.34956089  0.29842669    -0.17900
C414        C  0.14049920  0.35850613  0.24261116     0.10500
S415        S  0.10360233  0.25772103  0.28297185    -0.32900
S416        S  0.15246473  0.39893671  0.22966887    -0.32900
H417        H  0.13291446  0.40243899  0.18293168     0.28500
H418        H  0.09444325  0.24962305  0.22820563     0.28500
H419        H  0.11618906  0.28936007  0.17987241     0.19100
H420        H  0.14334316  0.36685174  0.33103072     0.19100
C421        C  0.23384821  0.67527965  0.99785994    -0.06800
C422        C  0.22555545  0.70476668  0.02363031    -0.17900
C423        C  0.24744797  0.73000685  0.02559216     0.10400
C424        C  0.27816162  0.72644643  0.99913821    -0.06700
C425        C  0.28661173  0.69682445  0.97404585    -0.17900
C426        C  0.26493808  0.67142824  0.97279763     0.10500
S427        S  0.23532261  0.76526325  0.06548032    -0.32900
S428        S  0.27823237  0.63532661  0.93652771    -0.32900
H429        H  0.24901660  0.63063664  0.90889515     0.28500
H430        H  0.26543025  0.76927843  0.09052597     0.28500
H431        H  0.20221282  0.70784108  0.04445271     0.19100
H432        H  0.31001971  0.69364062  0.95350006     0.19100
C433        C  0.19575941  0.50642778  0.00908628    -0.06800
C434        C  0.20971560  0.49189068  0.05474218    -0.17900
C435        C  0.21095044  0.45861402  0.05764349     0.10400
C436        C  0.19796900  0.43971332  0.01395087    -0.06700
C437        C  0.18754459  0.45443588  0.96563504    -0.17900
C438        C  0.18602428  0.48754338  0.96302250     0.10500
S439        S  0.22787258  0.44173159  0.11903778    -0.32900
S440        S  0.16919589  0.50435238  0.90156323    -0.32900
H441        H  0.18750226  0.53238624  0.90433136     0.28500
H442        H  0.23729101  0.41269007  0.09258400     0.28500
H443        H  0.21771159  0.50642084  0.08981040     0.19100
H444        H  0.17778111  0.44020452  0.93165148     0.19100
C445        C  0.17701464  0.73244622  0.48145332    -0.06800
C446        C  0.16725411  0.76387044  0.49444314    -0.17900
C447        C  0.18959346  0.78795408  0.50464877     0.10400
C448        C  0.22309424  0.78095264  0.50099174    -0.06700
C449        C  0.23287917  0.74953082  0.48700684    -0.17900
C450        C  0.21037683  0.72542958  0.47662090     0.10500
S451        S  0.17319949  0.82673851  0.52341581    -0.32900
S452        S  0.22591581  0.68675784  0.45488943    -0.32900
H453        H  0.20351171  0.68219963  0.41220835     0.28500
H454        H  0.18957119  0.82865326  0.57423755     0.28500
H455        H  0.14178989  0.76968494  0.49822335     0.19100
H456        H  0.25832617  0.74369808  0.48318457     0.19100
C457        C  0.14034310  0.61751341  0.18337697    -0.06800
C458        C  0.11738110  0.64160426  0.19537610    -0.17900
C459        C  0.10861453  0.65054521  0.25050845     0.10400
C460        C  0.12378611  0.63586193  0.29569611    -0.06700
C461        C  0.14599515  0.61107980  0.28383940    -0.17900
C462        C  0.15405813  0.60146672  0.22861704     0.10500
S463        S  0.07715199  0.68017221  0.25989355    -0.32900
S464        S  0.18142688  0.56813111  0.21923363    -0.32900
H465        H  0.16351552  0.55323345  0.17683133     0.28500
H466        H  0.06113140  0.66421698  0.30337574     0.28500
H467        H  0.10614661  0.65378435  0.16145493     0.19100
H468        H  0.15735930  0.59913804  0.31789498     0.19100
C469        C  0.77558926  0.71560414  0.48986252    -0.06800
C470        C  0.78318854  0.74460781  0.51644655    -0.17900
C471        C  0.76084249  0.76951780  0.52112390     0.10400
C472        C  0.73014526  0.76588238  0.49731086    -0.06700
C473        C  0.72255721  0.73692242  0.47027077    -0.17900
C474        C  0.74505968  0.71196875  0.46555114     0.10500
S475        S  0.77262490  0.80438916  0.56102764    -0.32900
S476        S  0.73411146  0.67710417  0.42501400    -0.32900
H477        H  0.76425523  0.67456173  0.39701930     0.28500
H478        H  0.74324646  0.80703819  0.59129732     0.28500
H479        H  0.80648768  0.74760287  0.53537198     0.19100
H480        H  0.69923793  0.73398938  0.45141344     0.19100
C481        C  0.82020942  0.62064008  0.31730098    -0.06800
C482        C  0.78783616  0.62389857  0.30264828    -0.17900
C483        C  0.77901082  0.62379397  0.24637182     0.10400
C484        C  0.80298871  0.61942937  0.20364664    -0.06700
C485        C  0.83516638  0.61524907  0.21875373    -0.17900
C486        C  0.84389496  0.61534325  0.27472323     0.10500
S487        S  0.73724183  0.63134412  0.23208112    -0.32900
S488        S  0.88554073  0.60715994  0.28910654    -0.32900
H489        H  0.87947792  0.59269444  0.34065559     0.28500
H490        H  0.74374946  0.65069258  0.18605390     0.28500
H491        H  0.76952409  0.62819667  0.33503164     0.19100
H492        H  0.85368281  0.61086903  0.18668038     0.19100
C493        C  0.93921982  0.67652665  0.46253330    -0.06800
C494        C  0.95557218  0.68457966  0.51143754    -0.17900
C495        C  0.98924567  0.68617719  0.51104636     0.10400
C496        C  0.00683182  0.68078611  0.46029855    -0.06700
C497        C  0.99020659  0.67541011  0.41073932    -0.17900
C498        C  0.95664038  0.67357900  0.41121547     0.10500
S499        S  0.00837852  0.69083184  0.57744669    -0.32900
S500        S  0.93753726  0.66714530  0.34508589    -0.32900
H501        H  0.90852412  0.68280349  0.36087342     0.28500
H502        H  0.02876312  0.66423082  0.56806172     0.28500
H503        H  0.94233858  0.68673184  0.55100319     0.19100
H504        H  0.00354343  0.67182526  0.37151482     0.19100
C505        C  0.60672301  0.86148466  0.39064281    -0.06800
C506        C  0.61081449  0.89411390  0.38395988    -0.17900
C507        C  0.59205542  0.91173089  0.34793020     0.10400
C508        C  0.57026942  0.89566521  0.31087990    -0.06700
C509        C  0.56514939  0.86267817  0.32139517    -0.17900
C510        C  0.58275892  0.84575180  0.36046139     0.10500
S511        S  0.59609672  0.95388401  0.36086908    -0.32900
S512        S  0.57476256  0.80386082  0.36724928    -0.32900
H513        H  0.60594739  0.79512024  0.38300296     0.28500
H514        H  0.56428897  0.96028625  0.34953544     0.28500
H515        H  0.62788414  0.90657484  0.41023515     0.19100
H516        H  0.54854208  0.84917532  0.29600305     0.19100
C517        C  0.59831266  0.85765997  0.10790885    -0.06800
C518        C  0.57531832  0.88146303  0.10070077    -0.17900
C519        C  0.56082550  0.89841948  0.14620898     0.10400
C520        C  0.57026146  0.89243741  0.20257403    -0.06700
C521        C  0.59674956  0.87081012  0.20725371    -0.17900
C522        C  0.60969337  0.85283866  0.16176983     0.10500
S523        S  0.52939316  0.92604051  0.12844898    -0.32900
S524        S  0.64103609  0.82425612  0.17540970    -0.32900
H525        H  0.65651802  0.82581259  0.12260536     0.28500
H526        H  0.52239128  0.91303008  0.07536151     0.28500
H527        H  0.56722859  0.88552749  0.05876525     0.19100
H528        H  0.60834653  0.86728425  0.24641130     0.19100
C529        C  0.60799131  0.08361527  0.38470100    -0.06800
C530        C  0.58182319  0.06360360  0.39355984    -0.17900
C531        C  0.56517481  0.04944811  0.34925479     0.10400
C532        C  0.57101917  0.05979611  0.29277340    -0.06700
C533        C  0.60059321  0.07671491  0.28541187    -0.17900
C534        C  0.61803663  0.08944388  0.32968814     0.10500
S535        S  0.53987828  0.01709541  0.37288787    -0.32900
S536        S  0.65271547  0.11338065  0.31269638    -0.32900
H537        H  0.64864404  0.13469970  0.35874433     0.28500
H538        H  0.52358419  0.00902800  0.32492142     0.28500
H539        H  0.57571257  0.05695605  0.43598927     0.19100
H540        H  0.61137111  0.08025904  0.24459887     0.19100
C541        C  0.56460117  0.07009434  0.18853423    -0.06800
C542        C  0.56382427  0.10386414  0.19562340    -0.17900
C543        C  0.57732020  0.12437847  0.15662822     0.10400
C544        C  0.59034756  0.11188763  0.10561429    -0.06700
C545        C  0.59161618  0.07871995  0.09757227    -0.17900
C546        C  0.57953751  0.05756358  0.13754835     0.10500
S547        S  0.57733518  0.16619909  0.17563078    -0.32900
S548        S  0.58233233  0.01580134  0.11695123    -0.32900
H549        H  0.60611702  0.01814335  0.07437908     0.28500
H550        H  0.60918513  0.17085274  0.15608252     0.28500
H551        H  0.55316781  0.11441691  0.23364544     0.19100
H552        H  0.60111523  0.06917625  0.05802560     0.19100
C553        C  0.55483312  0.94607484  0.24815665    -0.06800
C554        C  0.52590693  0.96318196  0.23836369    -0.17900
C555        C  0.52567999  0.99453435  0.22127193     0.10400
C556        C  0.55240682  0.01422872  0.23114953    -0.06700
C557        C  0.58195702  0.99776400  0.23883792    -0.17900
C558        C  0.58367133  0.96394201  0.23967540     0.10500
S559        S  0.49560847  0.00292512  0.17124739    -0.32900
S560        S  0.62272271  0.94482534  0.23080349    -0.32900
H561        H  0.63983119  0.97221566  0.21557394     0.28500
H562        H  0.51679026  0.01804244  0.13437277     0.28500
H563        H  0.50329723  0.95121228  0.23305669     0.19100
H564        H  0.60396022  0.01135680  0.24114955     0.19100
C565        C  0.38523224  0.06742527  0.31527029    -0.06800
C566        C  0.39929995  0.08823215  0.35543406    -0.17900
C567        C  0.38145446  0.10245095  0.40011898     0.10400
C568        C  0.34800029  0.09738722  0.40461293    -0.06700
C569        C  0.33316990  0.07942895  0.36263830    -0.17900
C570        C  0.35082453  0.06413146  0.31918157     0.10500
S571        S  0.40283110  0.12735019  0.44905680    -0.32900
S572        S  0.32840693  0.03717029  0.27458445    -0.32900
H573        H  0.29769332  0.05078221  0.28494629     0.28500
H574        H  0.37738442  0.14931341  0.45832520     0.28500
H575        H  0.42433856  0.09462718  0.35193180     0.19100
H576        H  0.30751730  0.07513617  0.36625575     0.19100
C577        C  0.35436343  0.09752436  0.12683033    -0.06800
C578        C  0.37070359  0.11541657  0.16698050    -0.17900
C579        C  0.38824718  0.10130559  0.20873288     0.10400
C580        C  0.38884424  0.06730348  0.21365905    -0.06700
C581        C  0.37219647  0.04938644  0.17236679    -0.17900
C582        C  0.35510776  0.06399528  0.12973279     0.10500
S583        S  0.41176684  0.12833576  0.25135195    -0.32900
S584        S  0.33381689  0.03845211  0.08174849    -0.32900
H585        H  0.30743740  0.05935184  0.07697458     0.28500
H586        H  0.39182557  0.15531808  0.24645242     0.28500
H587        H  0.37161720  0.14107163  0.16359382     0.19100
H588        H  0.37051328  0.02382899  0.17429637     0.19100
C589        C  0.51277413  0.06302301  0.24733096    -0.06800
C590        C  0.49708992  0.06173312  0.30009702    -0.17900
C591        C  0.46420826  0.05454683  0.30702095     0.10400
C592        C  0.44272091  0.05937523  0.26267289    -0.06700
C593        C  0.45760018  0.06919100  0.21194325    -0.17900
C594        C  0.49126950  0.07158243  0.20357606     0.10500
S595        S  0.45206396  0.03689869  0.37217414    -0.32900
S596        S  0.50323338  0.08285936  0.13350756    -0.32900
H597        H  0.47811412  0.10516431  0.12783339     0.28500
H598        H  0.47711123  0.04907589  0.40479749     0.28500
H599        H  0.51013284  0.06579327  0.33715087     0.19100
H600        H  0.44333711  0.07257039  0.17546811     0.19100
C601        C  0.35371647  0.86798466  0.39998437    -0.06800
C602        C  0.33879262  0.88555797  0.35894389    -0.17900
C603        C  0.35591131  0.89804533  0.31367478     0.10400
C604        C  0.39005991  0.89307842  0.30757579    -0.06700
C605        C  0.40480921  0.87501278  0.34965990    -0.17900
C606        C  0.38725262  0.86277320  0.39539286     0.10500
S607        S  0.33281116  0.92209466  0.26702679    -0.32900
S608        S  0.40788600  0.83914223  0.44564534    -0.32900
H609        H  0.43949238  0.84641423  0.42784204     0.28500
H610        H  0.30241645  0.90895996  0.27923034     0.28500
H611        H  0.31322217  0.89061281  0.36330043     0.19100
H612        H  0.42991690  0.86855329  0.34589798     0.19100
C613        C  0.35826844  0.85693036  0.11701748    -0.06800
C614        C  0.37230254  0.83977266  0.15961549    -0.17900
C615        C  0.38949570  0.85460484  0.20246066     0.10400
C616        C  0.39264940  0.88862906  0.20492071    -0.06700
C617        C  0.37644924  0.90570700  0.16340164    -0.17900
C618        C  0.36000416  0.89047245  0.11971289     0.10500
S619        S  0.41038600  0.82833940  0.24861326    -0.32900
S620        S  0.34124454  0.91546879  0.06961935    -0.32900
H621        H  0.31347201  0.89660806  0.06523778     0.28500
H622        H  0.39100881  0.80135860  0.24002893     0.28500
H623        H  0.37178550  0.81399783  0.15738248     0.19100
H624        H  0.37513066  0.93134714  0.16536018     0.19100
C625        C  0.44711470  0.89873339  0.25700751    -0.06800
C626        C  0.46299736  0.91178408  0.30379116    -0.17900
C627        C  0.49655901  0.91106073  0.30934776     0.10400
C628        C  0.51675496  0.89890144  0.26447312    -0.06700
C629        C  0.50113875  0.88082734  0.22298623    -0.17900
C630        C  0.46753958  0.88254525  0.21549245     0.10500
S631        S  0.51231470  0.92731690  0.37364506    -0.32900
S632        S  0.45437074  0.86751036  0.14805129    -0.32900
H633        H  0.48331742  0.85364352  0.12718087     0.28500
H634        H  0.48336418  0.93913399  0.39819586     0.28500
H635        H  0.44857179  0.92346282  0.33659102     0.19100
H636        H  0.51549884  0.86721971  0.19281020     0.19100
C637        C  0.40722673  0.94395695  0.25583905    -0.06800
C638        C  0.39601096  0.96068822  0.30477227    -0.17900
C639        C  0.39335266  0.99401608  0.30999403     0.10400
C640        C  0.40394028  0.01372693  0.26493702    -0.06700
C641        C  0.41783023  0.99708966  0.21788552    -0.17900
C642        C  0.41976909  0.96345680  0.21269813     0.10500
S643        S  0.37908122  0.00797958  0.37871786    -0.32900
S644        S  0.43950554  0.94655605  0.15054878    -0.32900
H645        H  0.43587744  0.97324246  0.11684350     0.28500
H646        H  0.35778439  0.98264488  0.38867751     0.28500
H647        H  0.39036905  0.94780864  0.34205030     0.19100
H648        H  0.42744539  0.01095009  0.18401620     0.19100
C649        C  0.06910177  0.57033375  0.78968907    -0.06800
C650        C  0.10322381  0.56893489  0.78323858    -0.17900
C651        C  0.12429623  0.57836602  0.82522644     0.10400
C652        C  0.11168555  0.59103416  0.87643281    -0.06700
C653        C  0.07834573  0.59685996  0.88094050    -0.17900
C654        C  0.05725109  0.58889454  0.83725249     0.10500
S655        S  0.16711673  0.57338972  0.81156171    -0.32900
S656        S  0.01825570  0.60866533  0.84033620    -0.32900
H657        H  0.01948922  0.62143148  0.89516424     0.28500
H658        H  0.16500197  0.55149132  0.76625893     0.28500
H659        H  0.11368615  0.55882212  0.74482512     0.19100
H660        H  0.06897813  0.60903330  0.91838149     0.19100
C661        C  0.06364748  0.57290346  0.68734545    -0.06800
C662        C  0.06395472  0.60666733  0.69225801    -0.17900
C663        C  0.07793274  0.62592628  0.65194010     0.10400
C664        C  0.09079967  0.61203961  0.60185105    -0.06700
C665        C  0.09289533  0.57875594  0.59737736    -0.17900
C666        C  0.08119732  0.55898263  0.63997071     0.10500
S667        S  0.07885009  0.66805451  0.66844860    -0.36900
S668        S  0.09177663  0.51713189  0.63183222    -0.32900
H669        H  0.10185517  0.51691543  0.57528481     0.28500
H670        H  0.11089814  0.67161453  0.64907877     0.28500
H671        H  0.05278141  0.61845170  0.72865238     0.19100
H672        H  0.10425690  0.56815601  0.56012771     0.19100
C673        C  0.86281082  0.58768497  0.61343530    -0.06800
C674        C  0.84798979  0.59390949  0.66577841    -0.17900
C675        C  0.85737867  0.57815350  0.71426569     0.10400
C676        C  0.88546905  0.55765886  0.71199937    -0.06700
C677        C  0.89724876  0.54917981  0.65733199    -0.17900
C678        C  0.88687141  0.56393631  0.60923718     0.10500
S679        S  0.82950843  0.58224066  0.77357972    -0.32900
S680        S  0.90777550  0.55321376  0.54451262    -0.32900
H681        H  0.91526406  0.58492285  0.53187312     0.28500
H682        H  0.81167854  0.60855415  0.75583702     0.28500
H683        H  0.82803934  0.61067178  0.66809156     0.19100
H684        H  0.91720772  0.53285160  0.65153763     0.19100
C685        C  0.89144716  0.55713676  0.82118402    -0.06800
C686        C  0.87958188  0.53679811  0.86301597    -0.17900
C687        C  0.86133396  0.54828939  0.90914671     0.10400
C688        C  0.85670645  0.58122870  0.91729335    -0.06700
C689        C  0.87380211  0.60207380  0.88331981    -0.17900
C690        C  0.89154153  0.59058984  0.83576254     0.10500
S691        S  0.84384862  0.52054216  0.95759896    -0.32900
S692        S  0.91013241  0.61980204  0.79137463    -0.32900
H693        H  0.90312025  0.64698780  0.82519665     0.28500
H694        H  0.85042036  0.49256497  0.92555194     0.28500
H695        H  0.88363558  0.51149970  0.85968119     0.19100
H696        H  0.87110083  0.62743875  0.89155783     0.19100
C697        C  0.94159288  0.55212501  0.76215740    -0.06800
C698        C  0.95518036  0.57220764  0.72160735    -0.17900
C699        C  0.98865901  0.57564892  0.71224716     0.10400
C700        C  0.01112173  0.56038219  0.74826761    -0.06700
C701        C  0.99704494  0.54391085  0.79357367    -0.17900
C702        C  0.96368355  0.53916390  0.80045932     0.10500
S703        S  0.99906179  0.59576997  0.64827999    -0.32900
S704        S  0.95109715  0.51388190  0.85665364    -0.32900
H705        H  0.97802104  0.51897348  0.89032481     0.28500
H706        H  0.97149288  0.61535016  0.64587906     0.28500
H707        H  0.93949443  0.58492787  0.69475439     0.19100
H708        H  0.01297869  0.53253661  0.82230163     0.19100
C709        C  0.05963557  0.39972075  0.82186629    -0.06800
C710        C  0.06971898  0.42103130  0.86472829    -0.17900
C711        C  0.08459390  0.41069225  0.91293617     0.10400
C712        C  0.08884929  0.37783582  0.92135363    -0.06700
C713        C  0.07470092  0.35627291  0.88383104    -0.17900
C714        C  0.05929569  0.36660161  0.83544301     0.10500
S715        S  0.10054065  0.44093946  0.95912647    -0.32900
S716        S  0.04298276  0.33631346  0.78916004    -0.32900
H717        H  0.05349198  0.30942458  0.81763029     0.28500
H718        H  0.08335906  0.43003385  0.00618767     0.28500
H719        H  0.06657100  0.44638664  0.86126342     0.19100
H720        H  0.07696147  0.33106406  0.89143121     0.19100
C721        C  0.09440031  0.36375837  0.61477744    -0.06800
C722        C  0.10735442  0.35846249  0.66701601    -0.17900
C723        C  0.09697921  0.37594617  0.71522573     0.10400
C724        C  0.06935153  0.39681333  0.71268236    -0.06700
C725        C  0.05961156  0.40428192  0.65794002    -0.17900
C726        C  0.07167226  0.38831917  0.60972069     0.10500
S727        S  0.12315308  0.37314373  0.77440591    -0.32900
S728        S  0.05489695  0.39729420  0.54284995    -0.32900
H729        H  0.04097253  0.42682857  0.55941090     0.28500
H730        H  0.13711764  0.34332178  0.76006992     0.28500
H731        H  0.12660689  0.34104883  0.66945530     0.19100
H732        H  0.04004971  0.42070937  0.65245294     0.19100
C733        C  0.05168455  0.44931697  0.75510952    -0.06800
C734        C  0.02802067  0.46535072  0.72428353    -0.17900
C735        C  0.03072176  0.49726465  0.70919419     0.10400
C736        C  0.05325822  0.51769529  0.73644293    -0.06700
C737        C  0.07744512  0.50128592  0.76572534    -0.17900
C738        C  0.07937447  0.46785760  0.76682425     0.10500
S739        S  0.00512521  0.50874742  0.65298702    -0.32900
S740        S  0.11804529  0.45062496  0.78205238    -0.32900
H741        H  0.13663886  0.47819332  0.77468195     0.28500
H742        H  0.02453941  0.53280672  0.63213878     0.28500
H743        H  0.00812380  0.45238822  0.70710404     0.19100
H744        H  0.09629236  0.51329336  0.78682900     0.19100
C745        C  0.89174121  0.38082907  0.68324507    -0.06800
C746        C  0.89214724  0.34719142  0.68758799    -0.17900
C747        C  0.87839252  0.32661634  0.64836130     0.10400
C748        C  0.86373273  0.33905118  0.60092237    -0.06700
C749        C  0.86201056  0.37219403  0.59622241    -0.17900
C750        C  0.87511579  0.39331542  0.63622663     0.10500
S751        S  0.88070098  0.28467669  0.66237027    -0.32900
S752        S  0.86638337  0.43514841  0.62636113    -0.32900
H753        H  0.86055502  0.43321990  0.56869903     0.28500
H754        H  0.84813144  0.27912367  0.65046671     0.28500
H755        H  0.90376706  0.33655999  0.72270975     0.19100
H756        H  0.84998789  0.38173185  0.56060690     0.19100
C757        C  0.88548006  0.38533083  0.78673108    -0.06800
C758        C  0.90182797  0.36910654  0.82945715    -0.17900
C759        C  0.88586615  0.35673169  0.87643454     0.10400
C760        C  0.85204732  0.35813476  0.88047071    -0.06700
C761        C  0.83518714  0.37045760  0.83593854    -0.17900
C762        C  0.85083121  0.38354554  0.78947811     0.10500
S763        S  0.90927969  0.33789910  0.92926659    -0.32900
S764        S  0.82481235  0.39720627  0.73491181    -0.32900
H765        H  0.79488286  0.39462427  0.76318223     0.28500
H766        H  0.93944545  0.34999801  0.91247910     0.28500
H767        H  0.92736183  0.36468086  0.82639822     0.19100
H768        H  0.80912412  0.37044107  0.83812482     0.19100
C769        C  0.90043077  0.43727199  0.73324520    -0.06800
C770        C  0.87607349  0.45395803  0.76481598    -0.17900
C771        C  0.87355086  0.48742020  0.76583291     0.10400
C772        C  0.90138939  0.50594538  0.75380932    -0.06700
C773        C  0.92584505  0.48933559  0.72249281    -0.17900
C774        C  0.92344131  0.45723376  0.70602983     0.10500
S775        S  0.83417797  0.50457316  0.78074570    -0.32900
S776        S  0.95060402  0.44478444  0.64923671    -0.32900
H777        H  0.93230553  0.41966821  0.62849493     0.28500
H778        H  0.81656686  0.47606293  0.77769672     0.28500
H779        H  0.85788357  0.44179843  0.78807759     0.19100
H780        H  0.94615904  0.50198962  0.70574886     0.19100
C781        C  0.94278850  0.39557465  0.74353811    -0.06800
C782        C  0.95522274  0.41273777  0.79001431    -0.17900
C783        C  0.98811529  0.41670649  0.79909973     0.10400
C784        C  0.01167400  0.40310404  0.76112885    -0.06700
C785        C  0.99958512  0.38258251  0.71885755    -0.17900
C786        C  0.96649241  0.37973768  0.70750451     0.10500
S787        S  0.99743396  0.44002314  0.86069738    -0.32900
S788        S  0.95823316  0.35823551  0.64290128    -0.32900
H789        H  0.98750125  0.36493464  0.61470418     0.28500
H790        H  0.00456173  0.46757699  0.83102646     0.28500
H791        H  0.93849592  0.42472666  0.81920547     0.19100
H792        H  0.01612106  0.36855970  0.69282372     0.19100
loop_ 
_geom_bond_atom_site_label_1 
_geom_bond_atom_site_label_2 
_geom_bond_distance 
_geom_bond_site_symmetry_2 
_ccdc_geom_bond_type 
C1          C745   1.571       .  S
C1          C757   1.595       .  S
C1          C769   1.584       .  S
C1          C781   1.596       .  S
C2          C709   1.577       .  S
C2          C724   1.587       .  S
C2          C733   1.588       .  S
C2          C784   1.587       .  S
C3          C676   1.591       .  S
C3          C685   1.573       .  S
C3          C697   1.592       .  S
C3          C772   1.589       .  S
C4          C649   1.595       .  S
C4          C661   1.575       .  S
C4          C700   1.592       .  S
C4          C736   1.593       .  S
C5          C604   1.586       .  S
C5          C616   1.571       .  S
C5          C625   1.587       .  S
C5          C637   1.597       .  S
C6          C565   1.572       .  S
C6          C580   1.580       .  S
C6          C592   1.590       .  S
C6          C640   1.591       .  S
C7          C532   1.604       .  S
C7          C541   1.575       .  S
C7          C556   1.570       .  S
C7          C589   1.617       .  S
C8          C508   1.588       .  S
C8          C520   1.598       .  S
C8          C553   1.587       .  S
C8          C628   1.590       .  S
In9          O11   2.224       .  S
In9          O12   2.249       .  S
In9          O20   2.221       .  S
In9          O14   2.271       .  S
In9          O16   2.263       .  S
In9          O17   2.225       .  S
In9          O18   2.263       .  S
In9          O21   2.244       .  S
C10          O16   1.260       .  A
C10          O18   1.258       .  A
C10         C673   1.490       .  S
O11          C19   1.262       .  A
O12          C19   1.263       .  A
C13          O20   1.257       .  A
C13          O14   1.264       .  A
C13         C481   1.475       .  S
C15          O17   1.260       .  A
C15          O21   1.261       .  A
C15         C469   1.473       .  S
C19         C493   1.470       .  S
In22         O24   2.253       .  S
In22         O25   2.234       .  S
In22         O33   2.230       .  S
In22         O27   2.261       .  S
In22         O29   2.271       .  S
In22         O30   2.253       .  S
In22         O31   2.219       .  S
In22         O34   2.227       .  S
C23          O29   1.266       .  A
C23          O31   1.256       .  A
C23         C664   1.490       .  S
O24          C32   1.262       .  A
O25          C32   1.261       .  A
C26          O33   1.261       .  A
C26          O27   1.266       .  A
C26         C460   1.487       .  S
C28          O30   1.261       .  A
C28          O34   1.260       .  A
C28         C496   1.470       .  S
C32         C445   1.483       .  S
In35         O37   2.256       .  S
In35         O38   2.239       .  S
In35         O46   2.248       .  S
In35         O40   2.264       .  S
In35         O42   2.270   1_554  S
In35         O43   2.256       .  S
In35         O44   2.251   1_554  S
In35         O47   2.228       .  S
C36          O42   1.263       .  A
C36          O44   1.261       .  A
C36         C652   1.497       .  S
O37          C45   1.262       .  A
O38          C45   1.258       .  A
C39          O46   1.257       .  A
C39          O40   1.262       .  A
C39         C457   1.489       .  S
C41          O43   1.260       .  A
C41          O47   1.259       .  A
C41         C433   1.465       .  S
C45         C421   1.484   1_554  S
In48         O50   2.226       .  S
In48         O51   2.243   1_554  S
In48         O59   2.227       .  S
In48         O53   2.263       .  S
In48         O55   2.257       .  S
In48         O56   2.249       .  S
In48         O57   2.272   1_554  S
In48         O60   2.262       .  S
C49          O55   1.258   1_556  A
C49          O57   1.262       .  A
C49         C712   1.489       .  S
O50          C58   1.260       .  A
O51          C58   1.264   1_556  A
C52          O59   1.257       .  A
C52          O53   1.265       .  A
C52         C409   1.479       .  S
C54          O56   1.259       .  A
C54          O60   1.260       .  A
C54         C400   1.488       .  S
C58         C436   1.472       .  S
In61         O63   2.215       .  S
In61         O64   2.245       .  S
In61         O72   2.245       .  S
In61         O66   2.238       .  S
In61         O68   2.278       .  S
In61         O69   2.246       .  S
In61         O70   2.230   1_554  S
In61         O73   2.253       .  S
C62          O68   1.261   1_556  A
C62          O70   1.257       .  A
C62         C688   1.474       .  S
O63          C71   1.260       .  A
O64          C71   1.263       .  A
C65          O72   1.261       .  A
C65          O66   1.264       .  A
C65         C484   1.480       .  S
C67          O69   1.258       .  A
C67          O73   1.262       .  A
C67         C373   1.485   1_554  S
C71         C385   1.472       .  S
In74         O76   2.247       .  S
In74         O77   2.232       .  S
In74         O85   2.221       .  S
In74         O79   2.254       .  S
In74         O81   2.265   1_554  S
In74         O82   2.242       .  S
In74         O83   2.227   1_554  S
In74         O86   2.226       .  S
C75          O81   1.261       .  A
C75          O83   1.258       .  A
C75         C760   1.486       .  S
O76          C84   1.263       .  A
O77          C84   1.260       .  A
C78          O85   1.260       .  A
C78          O79   1.264       .  A
C78         C361   1.488       .  S
C80          O82   1.261       .  A
C80          O86   1.260       .  A
C80         C388   1.468       .  S
C84         C352   1.478   1_554  S
In87         O89   2.235       .  S
In87         O90   2.231       .  S
In87         O98   2.229       .  S
In87         O92   2.246       .  S
In87         O94   2.262       .  S
In87         O95   2.231       .  S
In87         O96   2.216       .  S
In87         O99   2.205       .  S
C88          O94   1.266       .  A
C88          O96   1.257       .  A
C88         C748   1.488       .  S
O89          C97   1.260       .  A
O90          C97   1.261       .  A
C91          O98   1.261       .  A
C91          O92   1.266       .  A
C91         C364   1.479       .  S
C93          O95   1.263       .  A
C93          O99   1.262       .  A
C93         C337   1.471       .  S
C97         C328   1.483       .  S
In100       O102   2.210       .  S
In100       O103   2.243       .  S
In100       O111   2.225       .  S
In100       O105   2.262       .  S
In100       O107   2.253       .  S
In100       O108   2.228       .  S
In100       O109   2.244       .  S
In100       O112   2.244       .  S
C101        O107   1.261       .  A
C101        O109   1.259       .  A
C101        C721   1.478       .  S
O102        C110   1.258       .  A
O103        C110   1.262       .  A
C104        O111   1.257       .  A
C104        O105   1.266       .  A
C104        C412   1.489       .  S
C106        O108   1.260       .  A
C106        O112   1.263       .  A
C106        C313   1.478       .  S
C110        C340   1.470       .  S
In113       O115   2.192       .  S
In113       O116   2.243       .  S
In113       O124   2.218       .  S
In113       O118   2.259       .  S
In113       O120   2.270       .  S
In113       O121   2.215       .  S
In113       O122   2.221       .  S
In113       O125   2.241       .  S
C114        O120   1.265       .  A
C114        O122   1.259       .  A
C114        C505   1.476       .  S
O115        C123   1.262       .  A
O116        C123   1.265       .  A
C117        O124   1.258       .  A
C117        O118   1.268       .  A
C117        C289   1.487       .  S
C119        O121   1.260       .  A
C119        O125   1.263       .  A
C119        C472   1.474       .  S
C123        C301   1.468       .  S
In126       O128   2.228       .  S
In126       O129   2.227       .  S
In126       O137   2.220       .  S
In126       O131   2.252       .  S
In126       O133   2.240       .  S
In126       O134   2.250       .  S
In126       O135   2.229       .  S
In126       O138   2.197       .  S
C127        O133   1.263       .  A
C127        O135   1.260       .  A
C127        C529   1.472       .  S
O128        C136   1.263       .  A
O129        C136   1.261       .  A
C130        O137   1.261       .  A
C130        O131   1.264       .  A
C130        C277   1.481       .  S
C132        O134   1.263       .  A
C132        O138   1.258       .  A
C132        C304   1.468       .  S
C136        C325   1.477       .  S
In139       O141   2.237       .  S
In139       O142   2.250       .  S
In139       O150   2.236       .  S
In139       O144   2.240       .  S
In139       O146   2.246   1_556  S
In139       O147   2.249       .  S
In139       O148   2.237   1_556  S
In139       O151   2.203       .  S
C140        O146   1.266       .  A
C140        O148   1.261       .  A
C140        C544   1.491       .  S
O141        C149   1.260       .  A
O142        C149   1.263       .  A
C143        O150   1.260       .  A
C143        O144   1.264       .  A
C143        C280   1.472       .  S
C145        O147   1.268       .  A
C145        O151   1.262       .  A
C145        C265   1.475       .  S
C149        C349   1.483       .  S
In152       O154   2.216       .  S
In152       O155   2.257   1_556  S
In152       O163   2.199       .  S
In152       O157   2.252       .  S
In152       O159   2.265   1_556  S
In152       O160   2.234   1_556  S
In152       O161   2.219   1_556  S
In152       O164   2.255   1_556  S
C153        O159   1.261       .  A
C153        O161   1.262       .  A
C153        C577   1.486       .  S
O154        C162   1.259       .  A
O155        C162   1.264   1_554  A
C156        O163   1.259       .  A
C156        O157   1.265       .  A
C156        C253   1.481       .  S
C158        O160   1.262       .  A
C158        O164   1.264       .  A
C158        C397   1.487       .  S
C162        C268   1.473       .  S
In165       O167   2.207       .  S
In165       O168   2.246       .  S
In165       O176   2.227       .  S
In165       O170   2.257       .  S
In165       O172   2.251   1_556  S
In165       O173   2.247       .  S
In165       O174   2.251   1_556  S
In165       O177   2.229       .  S
C166        O172   1.263       .  A
C166        O174   1.260       .  A
C166        C517   1.480       .  S
O167        C175   1.260       .  A
O168        C175   1.264       .  A
C169        O176   1.259       .  A
C169        O170   1.265       .  A
C169        C292   1.477       .  S
C171        O173   1.263       .  A
C171        O177   1.262       .  A
C171        C376   1.485       .  S
C175        C241   1.472       .  S
In178       O180   2.244       .  S
In178       O181   2.234       .  S
In178       O189   2.220       .  S
In178       O183   2.254       .  S
In178       O185   2.269   1_556  S
In178       O186   2.248       .  S
In178       O187   2.222   1_556  S
In178       O190   2.204       .  S
C179        O185   1.263       .  A
C179        O187   1.260       .  A
C179        C613   1.489       .  S
O180        C188   1.264       .  A
O181        C188   1.263       .  A
C182        O189   1.260       .  A
C182        O183   1.266       .  A
C182        C229   1.488       .  S
C184        O186   1.264       .  A
C184        O190   1.259       .  A
C184        C244   1.470       .  S
C188        C424   1.485       .  S
In191       O193   2.263       .  S
In191       O194   2.224       .  S
In191       O202   2.226       .  S
In191       O196   2.254       .  S
In191       O198   2.280       .  S
In191       O199   2.243       .  S
In191       O200   2.221       .  S
In191       O203   2.230       .  S
C192        O198   1.262       .  A
C192        O200   1.258       .  A
C192        C601   1.489       .  S
O193        C201   1.264       .  A
O194        C201   1.257       .  A
C195        O202   1.260       .  A
C195        O196   1.266       .  A
C195        C232   1.482       .  S
C197        O199   1.260       .  A
C197        O203   1.260       .  A
C197        C217   1.475       .  S
C201        C448   1.489       .  S
In204       O206   2.220       .  S
In204       O207   2.251       .  S
In204       O215   2.220       .  S
In204       O209   2.236       .  S
In204       O211   2.265       .  S
In204       O212   2.228       .  S
In204       O213   2.218       .  S
In204       O216   2.239       .  S
C205        O211   1.262       .  A
C205        O213   1.260       .  A
C205        C568   1.482       .  S
O206        C214   1.259       .  A
O207        C214   1.263       .  A
C208        O215   1.260       .  A
C208        O209   1.265       .  A
C208        C256   1.475       .  S
C210        O212   1.262       .  A
C210        O216   1.263       .  A
C210        C316   1.477       .  S
C214        C220   1.471       .  S
C217        C218   1.403       .  A
C217        C222   1.415       .  A
C218        C219   1.395       .  A
C218        H227   1.084       .  S
C219        C220   1.412   1_565  A
C219        S223   1.804   1_565  S
C220        C221   1.402   1_545  A
C221        C222   1.400       .  A
C221        H228   1.084   1_565  S
C222        S224   1.800       .  S
S223        H226   1.407       .  S
S224        H225   1.407       .  S
C229        C230   1.409       .  A
C229        C234   1.415       .  A
C230        C231   1.399       .  A
C230        H239   1.084       .  S
C231        C232   1.412       .  A
C231        S235   1.802       .  S
C232        C233   1.406       .  A
C233        C234   1.400       .  A
C233        H240   1.084       .  S
C234        S236   1.801       .  S
S235        H238   1.407       .  S
S236        H237   1.408       .  S
C241        C242   1.402       .  A
C241        C246   1.413       .  A
C242        C243   1.391       .  A
C242        H251   1.084       .  S
C243        C244   1.413       .  A
C243        S247   1.805       .  S
C244        C245   1.403       .  A
C245        C246   1.400       .  A
C245        H252   1.084       .  S
C246        S248   1.801       .  S
S247        H250   1.407   1_556  S
S248        H249   1.407       .  S
C253        C254   1.407       .  A
C253        C258   1.414       .  A
C254        C255   1.393       .  A
C254        H263   1.084       .  S
C255        C256   1.410       .  A
C255        S259   1.802       .  S
C256        C257   1.406       .  A
C257        C258   1.399       .  A
C257        H264   1.084       .  S
C258        S260   1.801       .  S
S259        H262   1.407       .  S
S260        H261   1.408       .  S
C265        C266   1.403       .  A
C265        C270   1.413       .  A
C266        C267   1.393       .  A
C266        H275   1.084       .  S
C267        C268   1.412       .  A
C267        S271   1.805   1_556  S
C268        C269   1.405       .  A
C269        C270   1.403       .  A
C269        H276   1.084       .  S
C270        S272   1.801       .  S
S271        H274   1.407       .  S
S272        H273   1.407       .  S
C277        C278   1.405       .  A
C277        C282   1.416       .  A
C278        C279   1.395       .  A
C278        H287   1.084       .  S
C279        C280   1.409       .  A
C279        S283   1.803       .  S
C280        C281   1.404       .  A
C281        C282   1.402       .  A
C281        H288   1.084       .  S
C282        S284   1.802       .  S
S283        H286   1.408       .  S
S284        H285   1.408       .  S
C289        C290   1.404       .  A
C289        C294   1.421       .  A
C290        C291   1.400       .  A
C290        H299   1.084       .  S
C291        C292   1.414       .  A
C291        S295   1.804       .  S
C292        C293   1.399       .  A
C293        C294   1.399       .  A
C293        H300   1.084       .  S
C294        S296   1.801       .  S
S295        H298   1.407       .  S
S296        H297   1.407       .  S
C301        C302   1.400       .  A
C301        C306   1.414       .  A
C302        C303   1.385       .  A
C302        H311   1.085       .  S
C303        C304   1.412   1_565  A
C303        S307   1.803       .  S
C304        C305   1.404   1_545  A
C305        C306   1.402       .  A
C305        H312   1.084       .  S
C306        S308   1.801       .  S
S307        H310   1.406   1_565  S
S308        H309   1.407       .  S
C313        C314   1.404       .  A
C313        C318   1.414       .  A
C314        C315   1.398       .  A
C314        H323   1.084       .  S
C315        C316   1.414       .  A
C315        S319   1.804       .  S
C316        C317   1.403       .  A
C317        C318   1.399       .  A
C317        H324   1.084       .  S
C318        S320   1.802       .  S
S319        H322   1.408       .  S
S320        H321   1.408       .  S
C325        C326   1.403       .  A
C325        C330   1.414       .  A
C326        C327   1.396       .  A
C326        H335   1.084       .  S
C327        C328   1.416       .  A
C327        S331   1.800       .  S
C328        C329   1.407       .  A
C329        C330   1.397       .  A
C329        H336   1.084       .  S
C330        S332   1.803       .  S
S331        H334   1.408       .  S
S332        H333   1.408       .  S
C337        C338   1.402       .  A
C337        C342   1.414       .  A
C338        C339   1.396       .  A
C338        H347   1.083       .  S
C339        C340   1.413   1_655  A
C339        S343   1.811   1_655  S
C340        C341   1.402   1_455  A
C341        C342   1.397       .  A
C341        H348   1.084   1_655  S
C342        S344   1.800       .  S
S343        H346   1.407   1_455  S
S344        H345   1.407       .  S
C349        C350   1.406   1_556  A
C349        C354   1.415       .  A
C350        C351   1.400       .  A
C350        H359   1.084       .  S
C351        C352   1.413   1_554  A
C351        S355   1.803       .  S
C352        C353   1.404       .  A
C353        C354   1.399       .  A
C353        H360   1.084       .  S
C354        S356   1.802       .  S
S355        H358   1.408       .  S
S356        H357   1.408       .  S
C361        C362   1.408       .  A
C361        C366   1.417       .  A
C362        C363   1.396       .  A
C362        H371   1.084       .  S
C363        C364   1.409       .  A
C363        S367   1.803       .  S
C364        C365   1.405       .  A
C365        C366   1.406       .  A
C365        H372   1.083       .  S
C366        S368   1.809       .  S
S367        H370   1.408       .  S
S368        H369   1.407       .  S
C373        C374   1.403   1_556  A
C373        C378   1.416       .  A
C374        C375   1.399       .  A
C374        H383   1.084       .  S
C375        C376   1.413   1_554  A
C375        S379   1.802       .  S
C376        C377   1.406       .  A
C377        C378   1.406       .  A
C377        H384   1.082       .  S
C378        S380   1.809       .  S
S379        H382   1.408       .  S
S380        H381   1.407       .  S
C385        C386   1.403       .  A
C385        C390   1.415   1_554  A
C386        C387   1.394       .  A
C386        H395   1.084       .  S
C387        C388   1.410       .  A
C387        S391   1.804       .  S
C388        C389   1.402   1_554  A
C389        C390   1.399       .  A
C389        H396   1.084       .  S
C390        S392   1.802       .  S
S391        H394   1.407       .  S
S392        H393   1.406       .  S
C397        C398   1.405       .  A
C397        C402   1.416   1_554  A
C398        C399   1.404       .  A
C398        H407   1.084       .  S
C399        C400   1.417       .  A
C399        S403   1.801       .  S
C400        C401   1.404   1_554  A
C401        C402   1.400       .  A
C401        H408   1.084       .  S
C402        S404   1.803       .  S
S403        H406   1.408       .  S
S404        H405   1.408       .  S
C409        C410   1.400       .  A
C409        C414   1.413       .  A
C410        C411   1.404       .  A
C410        H419   1.083       .  S
C411        C412   1.422       .  A
C411        S415   1.810       .  S
C412        C413   1.405       .  A
C413        C414   1.399       .  A
C413        H420   1.084       .  S
C414        S416   1.804       .  S
S415        H418   1.407       .  S
S416        H417   1.407       .  S
C421        C422   1.405   1_556  A
C421        C426   1.416       .  A
C422        C423   1.401       .  A
C422        H431   1.084       .  S
C423        C424   1.414   1_554  A
C423        S427   1.802       .  S
C424        C425   1.405       .  A
C425        C426   1.399       .  A
C425        H432   1.084       .  S
C426        S428   1.803       .  S
S427        H430   1.408       .  S
S428        H429   1.407       .  S
C433        C434   1.401       .  A
C433        C438   1.409   1_554  A
C434        C435   1.401       .  A
C434        H443   1.084       .  S
C435        C436   1.415       .  A
C435        S439   1.803       .  S
C436        C437   1.401   1_554  A
C437        C438   1.394       .  A
C437        H444   1.084       .  S
C438        S440   1.802       .  S
S439        H442   1.407       .  S
S440        H441   1.406       .  S
C445        C446   1.402       .  A
C445        C450   1.415       .  A
C446        C447   1.397       .  A
C446        H455   1.084       .  S
C447        C448   1.419       .  A
C447        S451   1.802       .  S
C448        C449   1.407       .  A
C449        C450   1.403       .  A
C449        H456   1.084       .  S
C450        S452   1.802       .  S
S451        H454   1.408       .  S
S452        H453   1.408       .  S
C457        C458   1.404       .  A
C457        C462   1.419       .  A
C458        C459   1.401       .  A
C458        H467   1.084       .  S
C459        C460   1.417       .  A
C459        S463   1.803       .  S
C460        C461   1.404       .  A
C461        C462   1.403       .  A
C461        H468   1.084       .  S
C462        S464   1.802       .  S
S463        H466   1.408       .  S
S464        H465   1.408       .  S
C469        C470   1.400       .  A
C469        C474   1.414       .  A
C470        C471   1.393       .  A
C470        H479   1.084       .  S
C471        C472   1.416       .  A
C471        S475   1.803       .  S
C472        C473   1.403       .  A
C473        C474   1.399       .  A
C473        H480   1.084       .  S
C474        S476   1.801       .  S
S475        H478   1.405       .  S
S476        H477   1.407       .  S
C481        C482   1.403       .  A
C481        C486   1.411       .  A
C482        C483   1.404       .  A
C482        H491   1.083       .  S
C483        C484   1.417       .  A
C483        S487   1.802       .  S
C484        C485   1.403       .  A
C485        C486   1.395       .  A
C485        H492   1.084       .  S
C486        S488   1.803       .  S
S487        H490   1.407       .  S
S488        H489   1.407       .  S
C493        C494   1.401       .  A
C493        C498   1.412       .  A
C494        C495   1.399       .  A
C494        H503   1.084       .  S
C495        C496   1.413   1_655  A
C495        S499   1.800   1_655  S
C496        C497   1.400   1_455  A
C497        C498   1.395       .  A
C497        H504   1.084   1_655  S
C498        S500   1.801       .  S
S499        H502   1.406       .  S
S500        H501   1.407       .  S
C505        C506   1.394       .  A
C505        C510   1.402       .  A
C506        C507   1.398       .  A
C506        H515   1.086       .  S
C507        C508   1.440       .  A
C507        S511   1.798       .  S
C508        C509   1.430       .  A
C509        C510   1.405       .  A
C509        H516   1.083       .  S
C510        S512   1.802       .  S
S511        H514   1.380       .  S
S512        H513   1.406       .  S
C517        C518   1.394       .  A
C517        C522   1.402       .  A
C518        C519   1.405       .  A
C518        H527   1.083       .  S
C519        C520   1.441       .  A
C519        S523   1.805       .  S
C520        C521   1.429       .  A
C521        C522   1.402       .  A
C521        H528   1.077       .  S
C522        S524   1.805       .  S
S523        H526   1.407       .  S
S524        H525   1.407       .  S
C529        C530   1.393       .  A
C529        C534   1.399       .  A
C530        C531   1.401       .  A
C530        H539   1.084       .  S
C531        C532   1.446       .  A
C531        S535   1.816       .  S
C532        C533   1.431       .  A
C533        C534   1.394       .  A
C533        H540   1.078       .  S
C534        S536   1.805       .  S
S535        H538   1.382       .  S
S536        H537   1.407       .  S
C541        C542   1.423       .  A
C541        C546   1.440       .  A
C542        C543   1.396       .  A
C542        H551   1.084       .  S
C543        C544   1.410       .  A
C543        S547   1.802       .  S
C544        C545   1.401       .  A
C545        C546   1.408       .  A
C545        H552   1.082       .  S
C546        S548   1.811       .  S
S547        H550   1.408       .  S
S548        H549   1.407       .  S
C553        C554   1.422       .  A
C553        C558   1.430       .  A
C554        C555   1.388       .  A
C554        H563   1.076       .  S
C555        C556   1.408   1_565  A
C555        S559   1.790   1_565  S
C556        C557   1.422   1_545  A
C557        C558   1.422       .  A
C557        H564   1.082   1_565  S
C558        S560   1.809       .  S
S559        H562   1.397       .  S
S560        H561   1.407       .  S
C565        C566   1.420       .  A
C565        C570   1.436       .  A
C566        C567   1.403       .  A
C566        H575   1.077       .  S
C567        C568   1.408       .  A
C567        S571   1.802       .  S
C568        C569   1.397       .  A
C569        C570   1.397       .  A
C569        H576   1.083       .  S
C570        S572   1.812       .  S
S571        H574   1.407       .  S
S572        H573   1.407       .  S
C577        C578   1.395       .  A
C577        C582   1.411       .  A
C578        C579   1.393       .  A
C578        H587   1.083       .  S
C579        C580   1.435       .  A
C579        S583   1.811       .  S
C580        C581   1.421       .  A
C581        C582   1.408       .  A
C581        H588   1.078       .  S
C582        S584   1.801       .  S
S583        H586   1.407       .  S
S584        H585   1.407       .  S
C589        C590   1.409       .  A
C589        C594   1.443       .  A
C590        C591   1.406       .  A
C590        H599   1.060       .  S
C591        C592   1.420       .  A
C591        S595   1.806       .  S
C592        C593   1.420       .  A
C593        C594   1.411       .  A
C593        H600   1.078       .  S
C594        S596   1.812       .  S
S595        H598   1.406       .  S
S596        H597   1.408       .  S
C601        C602   1.398       .  A
C601        C606   1.408       .  A
C602        C603   1.396       .  A
C602        H611   1.083       .  S
C603        C604   1.434       .  A
C603        S607   1.812       .  S
C604        C605   1.424       .  A
C605        C606   1.410       .  A
C605        H612   1.076       .  S
C606        S608   1.807       .  S
S607        H610   1.407       .  S
S608        H609   1.407       .  S
C613        C614   1.399       .  A
C613        C618   1.410       .  A
C614        C615   1.398       .  A
C614        H623   1.082       .  S
C615        C616   1.435       .  A
C615        S619   1.812       .  S
C616        C617   1.420       .  A
C617        C618   1.404       .  A
C617        H624   1.077       .  S
C618        S620   1.801       .  S
S619        H622   1.407       .  S
S620        H621   1.407       .  S
C625        C626   1.413       .  A
C625        C630   1.443       .  A
C626        C627   1.402       .  A
C626        H635   1.080       .  S
C627        C628   1.427       .  A
C627        S631   1.805       .  S
C628        C629   1.407       .  A
C629        C630   1.412       .  A
C629        H636   1.075       .  S
C630        S632   1.815       .  S
S631        H634   1.406       .  S
S632        H633   1.406       .  S
C637        C638   1.416       .  A
C637        C642   1.425       .  A
C638        C639   1.405       .  A
C638        H647   1.077       .  S
C639        C640   1.438   1_565  A
C639        S643   1.815   1_565  S
C640        C641   1.417   1_545  A
C641        C642   1.416       .  A
C641        H648   1.080   1_565  S
C642        S644   1.806       .  S
S643        H646   1.409   1_545  S
S644        H645   1.407       .  S
C649        C650   1.421       .  A
C649        C654   1.437       .  A
C650        C651   1.399       .  A
C650        H659   1.082       .  S
C651        C652   1.410       .  A
C651        S655   1.809       .  S
C652        C653   1.404       .  A
C653        C654   1.414       .  A
C653        H660   1.082       .  S
C654        S656   1.813       .  S
S655        H658   1.407       .  S
S656        H657   1.406       .  S
C661        C662   1.419       .  A
C661        C666   1.441       .  A
C662        C663   1.393       .  A
C662        H671   1.083       .  S
C663        C664   1.410       .  A
C663        S667   1.803       .  S
C664        C665   1.400       .  A
C665        C666   1.410       .  A
C665        H672   1.082       .  S
C666        S668   1.812       .  S
S667        H670   1.408       .  S
S668        H669   1.406       .  S
C673        C674   1.399       .  A
C673        C678   1.406       .  A
C674        C675   1.412       .  A
C674        H683   1.082       .  S
C675        C676   1.443       .  A
C675        S679   1.813       .  S
C676        C677   1.421       .  A
C677        C678   1.397       .  A
C677        H684   1.076       .  S
C678        S680   1.801       .  S
S679        H682   1.406       .  S
S680        H681   1.408       .  S
C685        C686   1.414       .  A
C685        C690   1.438       .  A
C686        C687   1.397       .  A
C686        H695   1.075       .  S
C687        C688   1.403       .  A
C687        S691   1.808       .  S
C688        C689   1.395       .  A
C689        C690   1.412       .  A
C689        H696   1.082       .  S
C690        S692   1.808       .  S
S691        H694   1.407       .  S
S692        H693   1.406       .  S
C697        C698   1.412       .  A
C697        C702   1.427       .  A
C698        C699   1.411       .  A
C698        H707   1.075       .  S
C699        C700   1.443   1_655  A
C699        S703   1.812       .  S
C700        C701   1.417   1_455  A
C701        C702   1.406       .  A
C701        H708   1.083   1_655  S
C702        S704   1.804       .  S
S703        H706   1.407       .  S
S704        H705   1.407       .  S
C709        C710   1.416       .  A
C709        C714   1.436       .  A
C710        C711   1.399       .  A
C710        H719   1.077       .  S
C711        C712   1.410       .  A
C711        S715   1.801       .  S
C712        C713   1.400       .  A
C713        C714   1.413       .  A
C713        H720   1.082       .  S
C714        S716   1.809       .  S
S715        H718   1.406   1_556  S
S716        H717   1.406       .  S
C721        C722   1.395       .  A
C721        C726   1.402       .  A
C722        C723   1.408       .  A
C722        H731   1.083       .  S
C723        C724   1.442       .  A
C723        S727   1.811       .  S
C724        C725   1.422       .  A
C725        C726   1.399       .  A
C725        H732   1.074       .  S
C726        S728   1.808       .  S
S727        H730   1.407       .  S
S728        H729   1.408       .  S
C733        C734   1.419       .  A
C733        C738   1.421       .  A
C734        C735   1.401       .  A
C734        H743   1.076       .  S
C735        C736   1.430       .  A
C735        S739   1.807       .  S
C736        C737   1.422       .  A
C737        C738   1.406       .  A
C737        H744   1.064       .  S
C738        S740   1.805       .  S
S739        H742   1.391       .  S
S740        H741   1.408       .  S
C745        C746   1.419       .  A
C745        C750   1.442       .  A
C746        C747   1.394       .  A
C746        H755   1.084       .  S
C747        C748   1.411       .  A
C747        S751   1.803       .  S
C748        C749   1.400       .  A
C749        C750   1.409       .  A
C749        H756   1.082       .  S
C750        S752   1.813       .  S
S751        H754   1.408       .  S
S752        H753   1.407       .  S
C757        C758   1.426       .  A
C757        C762   1.440       .  A
C758        C759   1.404       .  A
C758        H767   1.075       .  S
C759        C760   1.405       .  A
C759        S763   1.808       .  S
C760        C761   1.397       .  A
C761        C762   1.400       .  A
C761        H768   1.082       .  S
C762        S764   1.816       .  S
S763        H766   1.407       .  S
S764        H765   1.406       .  S
C769        C770   1.417       .  A
C769        C774   1.431       .  A
C770        C771   1.407       .  A
C770        H779   1.068       .  S
C771        C772   1.425       .  A
C771        S775   1.805       .  S
C772        C773   1.415       .  A
C773        C774   1.399       .  A
C773        H780   1.074       .  S
C774        S776   1.808       .  S
S775        H778   1.408       .  S
S776        H777   1.391       .  S
C781        C782   1.418       .  A
C781        C786   1.440       .  A
C782        C783   1.398       .  A
C782        H791   1.084       .  S
C783        C784   1.424   1_655  A
C783        S787   1.799       .  S
C784        C785   1.414   1_455  A
C785        C786   1.412       .  A
C785        H792   1.077   1_655  S
C786        S788   1.810       .  S
S787        H790   1.402   1_655  S
S788        H789   1.409       .  S
