geometry optimzed in LAMMPS
_audit_creation_date              2020-11-30 
_audit_creation_method            'lammps2cif' 
_symmetry_space_group_name_H-M    'P1' 
_symmetry_Int_Tables_number       1 
_symmetry_cell_setting            triclinic 
loop_ 
_symmetry_equiv_pos_as_xyz 
  x,y,z 
_cell_length_a                    27.96059178 
_cell_length_b                    27.892395480727362 
_cell_length_c                    27.887792086749236 
_cell_angle_alpha                 89.9283702585317 
_cell_angle_beta                  89.99276579917029 
_cell_angle_gamma                 90.01338163697119 
loop_ 
_atom_site_label 
_atom_site_type_symbol 
_atom_site_fract_x 
_atom_site_fract_y 
_atom_site_fract_z 
_atom_site_charge 
O1          O  0.00125872  0.07811675  0.13609901    -0.87300
O2          O  0.00005785  0.07744805  0.86395446    -0.87400
O3          O  0.07870133  0.13466604  0.00307968    -0.89100
O4          O  0.92190656  0.13500447  0.99875461    -0.87800
O5          O  0.86398937  0.07664415  0.00066562    -0.87400
O6          O  0.13676241  0.07656032  0.99957107    -0.88800
O7          O  0.99984818  0.13562244  0.92199541    -0.87300
O8          O  0.00069112  0.13628143  0.07797306    -0.86900
Zr9        Zr  0.00021406  0.09623650  0.00017035     2.84300
O10         O  0.95203526  0.04768163  0.95186217    -1.08800
O11         O  0.04857664  0.04797960  0.04851891    -1.09600
C12         C  0.00136368  0.12237373  0.12222801     1.05900
C13         C  0.99977529  0.12163980  0.87779274     1.05800
C14         C  0.12277184  0.12063992  0.00175628     1.08800
C15         C  0.87784989  0.12084557  0.99953525     1.06600
H16         H  0.06900398  0.06799149  0.93156149     0.32100
O17         O  0.04891577  0.04813252  0.95153667    -1.29800
H18         H  0.93116819  0.06803367  0.06863537     0.31800
O19         O  0.95119628  0.04822174  0.04862933    -1.31500
O20         O  0.00064862  0.92188168  0.86366024    -0.87200
O21         O  0.99784961  0.92245331  0.13623702    -0.88700
O22         O  0.13597807  0.99516076  0.92236897    -0.87300
O23         O  0.86424483  0.00138995  0.92206485    -0.87400
O24         O  0.86443915  0.99403087  0.07785346    -0.87100
O25         O  0.13512642  0.00273044  0.07875062    -0.86900
O26         O  0.07810468  0.86345852  0.99814872    -0.87300
O27         O  0.92287607  0.86246334  0.00188363    -0.86700
O28         O  0.13624861  0.92139121  0.00220891    -0.87800
O29         O  0.86488046  0.92057952  0.99938782    -0.86900
O30         O  0.07813746  0.99800698  0.86407746    -0.87300
O31         O  0.07718010  0.00067151  0.13692652    -0.87100
O32         O  0.92218404  0.99874766  0.13616212    -0.86700
O33         O  0.92242081  0.00103646  0.86403470    -0.87100
O34         O  0.99980498  0.86360891  0.92172605    -0.87400
O35         O  0.99928973  0.86424382  0.07822973    -0.88800
Zr36       Zr  0.00031164  0.99956500  0.90341440     2.83100
Zr37       Zr  0.99991968  0.99997737  0.09671482     2.83500
Zr38       Zr  0.09663391  0.99917930  0.00033565     2.84100
Zr39       Zr  0.90369965  0.99893985  0.99996449     2.83400
Zr40       Zr  0.00025304  0.90277823  0.99991221     2.84200
O41         O  0.95210581  0.95103728  0.04842862    -1.09300
O42         O  0.04867375  0.95096715  0.95153762    -1.08800
C43         C  0.00037782  0.87766127  0.87752199     1.05800
C44         C  0.99788854  0.87832174  0.12233100     1.08400
C45         C  0.12212135  0.99568085  0.87814631     1.06000
C46         C  0.87830316  0.00175599  0.87791342     1.06400
C47         C  0.87830466  0.99533977  0.12202219     1.05900
C48         C  0.12120227  0.00253250  0.12296019     1.05500
C49         C  0.12217516  0.87730521  0.00006098     1.05900
C50         C  0.87880376  0.87639658  0.00075410     1.05400
H51         H  0.06833327  0.93090958  0.06921927     0.32100
O52         O  0.04850943  0.95079371  0.04904219    -1.30400
H53         H  0.93171224  0.93073137  0.93106600     0.32100
O54         O  0.95162272  0.95061756  0.95110065    -1.31800
O55         O  0.00329489  0.42344004  0.36330695    -0.87300
O56         O  0.99781423  0.42168358  0.63630520    -0.87400
O57         O  0.08023751  0.36554537  0.49802758    -0.89100
O58         O  0.92454844  0.36299267  0.50133292    -0.87800
O59         O  0.86616924  0.42075409  0.50062169    -0.87400
O60         O  0.13757617  0.42434098  0.49947960    -0.88800
O61         O  0.00288332  0.36384238  0.57788365    -0.87300
O62         O  0.00159299  0.36520397  0.42161979    -0.86900
Zr63       Zr  0.00177228  0.40374704  0.50007142     2.84300
O64         O  0.95288244  0.45127774  0.54881539    -1.08800
O65         O  0.04942430  0.45257890  0.45137644    -1.09600
C66         C  0.00276029  0.37930742  0.37746999     1.05900
C67         C  0.00005536  0.37766650  0.62199732     1.05800
C68         C  0.12416795  0.38003716  0.49833087     1.08800
C69         C  0.88033235  0.37657815  0.50110398     1.06600
H70         H  0.06978411  0.43222965  0.56896056     0.32100
O71         O  0.04958457  0.45208949  0.54907348    -1.29800
H72         H  0.93297786  0.43146400  0.43183513     0.31800
O73         O  0.95275575  0.45163733  0.45175251    -1.31500
O74         O  0.00363441  0.57774391  0.63688538    -0.87200
O75         O  0.99690221  0.57922430  0.36453919    -0.88700
O76         O  0.13626048  0.50286213  0.57799753    -0.87300
O77         O  0.86436817  0.49923149  0.57803532    -0.87400
O78         O  0.86455073  0.50017972  0.42292070    -0.87100
O79         O  0.13556421  0.50208713  0.42195379    -0.86900
O80         O  0.07724136  0.63739236  0.50168841    -0.87300
O81         O  0.92215935  0.63648463  0.49862574    -0.86700
O82         O  0.13541413  0.57945389  0.50159165    -0.87800
O83         O  0.86486437  0.57764299  0.49928888    -0.86900
O84         O  0.07861689  0.50019099  0.63652988    -0.87300
O85         O  0.07784657  0.50340590  0.36350480    -0.87100
O86         O  0.92240350  0.49900212  0.36452042    -0.86700
O87         O  0.92221791  0.50186436  0.63632845    -0.87100
O88         O  0.99983433  0.63585243  0.57852470    -0.87400
O89         O  0.99941547  0.63721773  0.42281350    -0.88800
Zr90       Zr  0.00053614  0.50008672  0.59733232     2.83100
Zr91       Zr  0.00042181  0.50096312  0.40345298     2.83500
Zr92       Zr  0.09673402  0.50138631  0.50021528     2.84100
Zr93       Zr  0.90439132  0.49962257  0.50051192     2.83400
Zr94       Zr  0.99987558  0.59718651  0.50042675     2.84200
O95         O  0.95172986  0.54884357  0.45188236    -1.09300
O96         O  0.04834223  0.54913095  0.54892295    -1.08800
C97         C  0.00208470  0.62177589  0.62258957     1.05800
C98         C  0.99743976  0.62332890  0.37868763     1.08400
C99         C  0.12260840  0.50176477  0.62225103     1.06000
C100        C  0.87814151  0.50075524  0.62222852     1.06400
C101        C  0.87840737  0.49941051  0.37873525     1.05900
C102        C  0.12184058  0.50314622  0.37770057     1.05500
C103        C  0.12134685  0.62355024  0.50197801     1.05900
C104        C  0.87825363  0.62201868  0.49844383     1.05400
H105        H  0.06833809  0.57016705  0.43171664     0.32100
O106        O  0.04862246  0.54983239  0.45157632    -1.30400
H107        H  0.93179431  0.56867619  0.56910551     0.32100
O108        O  0.95182209  0.54871168  0.54923921    -1.31800
O109        O  0.63549657  0.99726049  0.42107275    -0.87300
O110        O  0.36420470  0.00305380  0.42215655    -0.87400
O111        O  0.49939926  0.92165603  0.36404428    -0.89100
O112        O  0.49819517  0.07804503  0.36465897    -0.87800
O113        O  0.50148879  0.13613159  0.42283545    -0.87400
O114        O  0.49780533  0.86357302  0.42230735    -0.88800
O115        O  0.42194788  0.00073336  0.36370882    -0.87300
O116        O  0.57720882  0.99864832  0.36327477    -0.86900
Zr117      Zr  0.49954346  0.99973008  0.40330945     2.84300
O118        O  0.45192457  0.04858594  0.45189612    -1.08800
O119        O  0.54789879  0.95095137  0.45111935    -1.09600
C120        C  0.62138645  0.99730937  0.37693905     1.05900
C121        C  0.37797988  0.00251369  0.37785687     1.05800
C122        C  0.49838941  0.87747986  0.37811646     1.08800
C123        C  0.49961522  0.12212819  0.37877391     1.06600
H124        H  0.43034764  0.93162207  0.43179002     0.32100
O125        O  0.45067740  0.95146330  0.45158853    -1.29800
H126        H  0.56848187  0.06800543  0.43088518     0.31800
O127        O  0.54853939  0.04812582  0.45106345    -1.31500
O128        O  0.36546308  0.99862463  0.57929253    -0.87200
O129        O  0.63697108  0.00202210  0.57656869    -0.88700
O130        O  0.42112084  0.86478161  0.50454348    -0.87300
O131        O  0.42327468  0.13656982  0.49816244    -0.87400
O132        O  0.57891053  0.13520966  0.50149180    -0.87100
O133        O  0.57660699  0.86272630  0.49650176    -0.86900
O134        O  0.49871114  0.92119572  0.63567135    -0.87300
O135        O  0.50360104  0.07719208  0.63628402    -0.86700
O136        O  0.50256969  0.86310743  0.57741581    -0.87800
O137        O  0.50207623  0.13552634  0.57833321    -0.86900
O138        O  0.36334792  0.92315822  0.50162505    -0.87300
O139        O  0.63488325  0.92058431  0.49951880    -0.87100
O140        O  0.63650717  0.07676942  0.49755191    -0.86700
O141        O  0.36470125  0.07897674  0.49971328    -0.87100
O142        O  0.42370534  0.99971220  0.63722927    -0.87400
O143        O  0.57922521  0.99947762  0.63494297    -0.88800
Zr144      Zr  0.40347654  0.00064097  0.50048384     2.83100
Zr145      Zr  0.59660015  0.99915233  0.49918750     2.83500
Zr146      Zr  0.49942813  0.90316290  0.49996403     2.84100
Zr147      Zr  0.50076127  0.09634598  0.50031714     2.83400
Zr148      Zr  0.50083754  0.99948480  0.59660784     2.84200
O149        O  0.54920658  0.04773947  0.54819077    -1.09300
O150        O  0.45167584  0.95171936  0.54857436    -1.08800
C151        C  0.37958252  0.99860111  0.62347001     1.05800
C152        C  0.62323673  0.00120947  0.62081993     1.08400
C153        C  0.37711423  0.87897764  0.50377175     1.06000
C154        C  0.37904359  0.12303775  0.49847496     1.06400
C155        C  0.62287797  0.12098225  0.49962704     1.05900
C156        C  0.62072970  0.87649281  0.49764625     1.05500
C157        C  0.50059304  0.87716993  0.62144065     1.05900
C158        C  0.50341485  0.12144188  0.62248604     1.05400
H159        H  0.56894208  0.93058993  0.56809007     0.32100
O160        O  0.54883354  0.95068039  0.54825726    -1.30400
H161        H  0.43231275  0.06880399  0.56935148     0.32100
O162        O  0.45199147  0.04869465  0.54919163    -1.31800
O163        O  0.42165679  0.36362618  0.00114710    -0.87300
O164        O  0.42173906  0.63527760  0.00076104    -0.87400
O165        O  0.36462135  0.49856588  0.07846506    -0.89100
O166        O  0.36610166  0.50096933  0.92091574    -0.87800
O167        O  0.42420708  0.49992924  0.86283236    -0.87400
O168        O  0.42268613  0.50074063  0.13664621    -0.88800
O169        O  0.36385588  0.57704854  0.00193346    -0.87300
O170        O  0.36382438  0.42186251  0.00032606    -0.86900
Zr171      Zr  0.40373005  0.49960142  0.00014193     2.84300
O172        O  0.45157746  0.54844186  0.95144943    -1.08800
O173        O  0.45176066  0.45147389  0.04908633    -1.09600
C174        C  0.37759316  0.37762615  0.00097078     1.05900
C175        C  0.37767122  0.62123576  0.00169242     1.05800
C176        C  0.37858260  0.49973737  0.12267438     1.08800
C177        C  0.38015699  0.50051980  0.87667892     1.06600
H178        H  0.43214738  0.56779284  0.06883622     0.32100
O179        O  0.45199406  0.54789760  0.04878472    -1.29800
H180        H  0.43186475  0.43141811  0.93126144     0.31800
O181        O  0.45167865  0.45127013  0.95139017    -1.31500
O182        O  0.57712918  0.63639042  0.00149222    -0.87200
O183        O  0.57675168  0.36248188  0.00026645    -0.88700
O184        O  0.50294855  0.57831818  0.13587046    -0.87300
O185        O  0.50072227  0.57831196  0.86445314    -0.87400
O186        O  0.50424939  0.42295964  0.86332890    -0.87100
O187        O  0.49910955  0.42208097  0.13691755    -0.86900
O188        O  0.63706629  0.49866353  0.07783228    -0.87300
O189        O  0.63651086  0.49845525  0.92307275    -0.86700
O190        O  0.57915302  0.49844461  0.13604063    -0.87800
O191        O  0.57863755  0.50041316  0.86488873    -0.86900
O192        O  0.49872891  0.63645569  0.07755341    -0.87300
O193        O  0.49734848  0.36399982  0.07877286    -0.87100
O194        O  0.50008796  0.36484261  0.92159561    -0.86700
O195        O  0.49888452  0.63652641  0.92235106    -0.87100
O196        O  0.63490286  0.57796704  0.00159651    -0.87400
O197        O  0.63490047  0.42052633  0.00056299    -0.88800
Zr198      Zr  0.49988007  0.59640355  0.00015565     2.83100
Zr199      Zr  0.49950296  0.40296555  0.00040104     2.83500
Zr200      Zr  0.50065105  0.49981902  0.09723360     2.84100
Zr201      Zr  0.50081024  0.50014991  0.90379174     2.83400
Zr202      Zr  0.59657365  0.49928939  0.00065092     2.84200
O203        O  0.54839506  0.45104819  0.95216370    -1.09300
O204        O  0.54872298  0.54837328  0.04884135    -1.08800
C205        C  0.62110690  0.62224081  0.00165517     1.05800
C206        C  0.62089316  0.37630464  0.00034289     1.08400
C207        C  0.50084712  0.62239308  0.12162055     1.06000
C208        C  0.49966754  0.62254916  0.87817568     1.06400
C209        C  0.50279397  0.37886563  0.87745770     1.05900
C210        C  0.49766268  0.37794522  0.12298564     1.05500
C211        C  0.62329358  0.49834407  0.12203967     1.05900
C212        C  0.62265217  0.49943494  0.87888220     1.05400
H213        H  0.56804498  0.43050264  0.06897989     0.32100
O214        O  0.54833880  0.45070475  0.04904704    -1.30400
H215        H  0.56913169  0.56858914  0.93211495     0.32100
O216        O  0.54911939  0.54855978  0.95195439    -1.31800
C217        C  0.47643459  0.18615140  0.26171299    -0.11600
C218        C  0.49695994  0.23137359  0.27027972     0.05500
C219        C  0.51849764  0.24020336  0.31497713    -0.10400
C220        C  0.51919536  0.20476220  0.35034308    -0.12000
C221        C  0.49895483  0.15956660  0.34149926    -0.01800
C222        C  0.47774117  0.15051588  0.29682430    -0.10900
C223        C  0.49631833  0.26896683  0.23256096     0.05600
H224        H  0.53546271  0.27427700  0.32243685     0.07500
H225        H  0.53621920  0.21248112  0.38436262     0.10900
H226        H  0.46140540  0.11611656  0.28930072     0.11200
H227        H  0.45878746  0.17841839  0.22805312     0.07500
C228        C  0.50211952  0.25659807  0.18406894    -0.11600
C229        C  0.50201610  0.29185887  0.14853325    -0.10900
C230        C  0.49657340  0.34044522  0.16064592    -0.01800
C231        C  0.49055557  0.35284052  0.20915149    -0.12000
C232        C  0.49026432  0.31749709  0.24466586    -0.10400
H233        H  0.50766556  0.21967288  0.17354267     0.07500
H234        H  0.50692358  0.28100652  0.11159395     0.11200
H235        H  0.48586675  0.38987617  0.21976560     0.10900
H236        H  0.48483831  0.32819715  0.28157426     0.07500
C237        C  0.48692256  0.81607078  0.25751599    -0.11600
C238        C  0.49741179  0.76808186  0.26903131     0.05500
C239        C  0.50757992  0.75641764  0.31708182    -0.10400
C240        C  0.50779977  0.79184697  0.35246440    -0.12000
C241        C  0.49768936  0.83981812  0.34073903    -0.01800
C242        C  0.48696027  0.85144388  0.29291567    -0.10900
C243        C  0.49825876  0.73057409  0.23102191     0.05600
H244        H  0.51495954  0.71979108  0.32758435     0.07500
H245        H  0.51620452  0.78163556  0.38898914     0.10900
H246        H  0.47867351  0.88798619  0.28271516     0.11200
H247        H  0.47959236  0.82666606  0.22091096     0.07500
C248        C  0.46672643  0.73293464  0.19169654    -0.11600
C249        C  0.46822565  0.69821757  0.15563185    -0.10900
C250        C  0.50034782  0.65974595  0.15878928    -0.01800
C251        C  0.53154505  0.65688851  0.19799569    -0.12000
C252        C  0.53094908  0.69223741  0.23344688    -0.10400
H253        H  0.44039797  0.76124372  0.18898620     0.07500
H254        H  0.44350507  0.70076438  0.12581686     0.11200
H255        H  0.55695788  0.62769889  0.20073948     0.10900
H256        H  0.55655798  0.68974107  0.26243170     0.07500
C257        C  0.46404144  0.80412640  0.72913318    -0.11600
C258        C  0.49927842  0.76817880  0.72972011     0.05500
C259        C  0.53474491  0.76824019  0.69394964    -0.10400
C260        C  0.53500787  0.80361502  0.65841291    -0.12000
C261        C  0.50023476  0.83981393  0.65851451    -0.01800
C262        C  0.46476707  0.83989152  0.69402254    -0.10900
C263        C  0.49926406  0.73096972  0.76774327     0.05600
H264        H  0.56264546  0.74131813  0.69388147     0.07500
H265        H  0.56280365  0.80325505  0.63133860     0.10900
H266        H  0.43727330  0.86726068  0.69413381     0.11200
H267        H  0.43579455  0.80439894  0.75570097     0.07500
C268        C  0.49087514  0.74344131  0.81581235    -0.11600
C269        C  0.49115023  0.70838356  0.85170596    -0.10900
C270        C  0.49950760  0.65998369  0.84025416    -0.01800
C271        C  0.50776021  0.64763152  0.79204384    -0.12000
C272        C  0.50780742  0.68273715  0.75626282    -0.10400
H273        H  0.48470224  0.78045813  0.82572942     0.07500
H274        H  0.48462876  0.71923520  0.88839638     0.11200
H275        H  0.51439037  0.61078038  0.78185463     0.10900
H276        H  0.51393570  0.67205826  0.71944774     0.07500
C277        C  0.50415240  0.18183692  0.74445277    -0.11600
C278        C  0.50597578  0.23072314  0.73197445     0.05500
C279        C  0.50709340  0.24313275  0.68308865    -0.05600
C280        C  0.50649144  0.20774789  0.64769164    -0.12000
C281        C  0.50451959  0.15893714  0.66017710    -0.01800
C282        C  0.50333310  0.14642314  0.70903128    -0.10900
C283        C  0.50600231  0.26863144  0.76963022     0.05600
H284        H  0.50756170  0.28031576  0.67197540     0.07500
H285        H  0.50732176  0.21879451  0.61046379     0.10900
H286        H  0.50182239  0.10920578  0.72004268     0.11200
H287        H  0.50395683  0.17075405  0.78165847     0.07500
C288        C  0.47996086  0.26233195  0.81235898    -0.11600
C289        C  0.47934485  0.29804347  0.84740507    -0.10900
C290        C  0.50404234  0.34124917  0.84029314    -0.01800
C291        C  0.52999246  0.34790526  0.79770005    -0.12000
C292        C  0.53136283  0.31178954  0.76295196    -0.10400
H293        H  0.45920900  0.23014983  0.81847979     0.07500
H294        H  0.45869848  0.29225188  0.87977003     0.11200
H295        H  0.54986700  0.38070816  0.79163995     0.10900
H296        H  0.55266453  0.31758843  0.73105702     0.07500
C297        C  0.75947792  0.31481601  0.49262640    -0.11600
C298        C  0.77116659  0.26667016  0.50202737     0.05500
C299        C  0.81933861  0.25494080  0.51082430    -0.10400
C300        C  0.85478297  0.29042059  0.51021489    -0.12000
C301        C  0.84292347  0.33864103  0.50124919    -0.01800
C302        C  0.79479641  0.35030622  0.49242497    -0.10900
C303        C  0.73327659  0.22898901  0.50207319     0.05600
H304        H  0.82966475  0.21839580  0.51883945     0.07500
H305        H  0.89143332  0.28007793  0.51732154     0.10900
H306        H  0.78433513  0.38691969  0.48487678     0.11200
H307        H  0.72301389  0.32511481  0.48464836     0.07500
C308        C  0.68702631  0.23910959  0.51927703    -0.11600
C309        C  0.65108670  0.20426933  0.51798141    -0.10900
C310        C  0.66066623  0.15819198  0.50012052    -0.01800
C311        C  0.70691868  0.14781045  0.48335762    -0.12000
C312        C  0.74271414  0.18282308  0.48412959    -0.10400
H313        H  0.67862394  0.27388866  0.53424410     0.07500
H314        H  0.61595538  0.21322727  0.53167573     0.11200
H315        H  0.71533479  0.11274118  0.46901384     0.10900
H316        H  0.77757131  0.17390288  0.46981703     0.07500
C317        C  0.75670224  0.68192999  0.50675572    -0.11600
C318        C  0.76782982  0.73000927  0.49646424     0.05500
C319        C  0.81559830  0.74213652  0.48627342    -0.10400
C320        C  0.85141210  0.70718212  0.48689684    -0.12000
C321        C  0.84028082  0.65913074  0.49738062    -0.01800
C322        C  0.79244289  0.64690211  0.50703049    -0.10900
C323        C  0.72990320  0.76743804  0.49671037     0.05600
H324        H  0.82529324  0.77864744  0.47731725     0.07500
H325        H  0.88778942  0.71781597  0.47881706     0.10900
H326        H  0.78261613  0.61029726  0.51547895     0.11200
H327        H  0.72043875  0.67144027  0.51543821     0.07500
C328        C  0.68385857  0.75755847  0.47891376    -0.11600
C329        C  0.64828462  0.79282495  0.47936630    -0.10900
C330        C  0.65812072  0.83891274  0.49715760    -0.01800
C331        C  0.70415087  0.84884799  0.51473725    -0.12000
C332        C  0.73949527  0.81346961  0.51481419    -0.10400
H333        H  0.67546546  0.72273426  0.46401528     0.07500
H334        H  0.61326892  0.78419866  0.46517443     0.11200
H335        H  0.71271166  0.88385540  0.52914602     0.10900
H336        H  0.77423158  0.82205072  0.52964985     0.07500
C337        C  0.31849774  0.24404612  0.48456432    -0.11600
C338        C  0.27113002  0.23348876  0.49785139     0.05500
C339        C  0.25964497  0.18619896  0.51113915    -0.10400
C340        C  0.29448920  0.15032859  0.51076317    -0.12000
C341        C  0.34189874  0.16096561  0.49781166    -0.01800
C342        C  0.35351061  0.20827402  0.48477291    -0.10900
C343        C  0.23372587  0.27142175  0.49748142     0.05600
H344        H  0.22378285  0.17691794  0.52247099     0.07500
H345        H  0.28438362  0.11436605  0.52138229     0.10900
H346        H  0.38960455  0.21761653  0.47421267     0.11200
H347        H  0.32845102  0.27983650  0.47329451     0.07500
C348        C  0.24461762  0.31875366  0.51104248    -0.11600
C349        C  0.20925033  0.35418083  0.51075899    -0.10900
C350        C  0.16203975  0.34294687  0.49751442    -0.01800
C351        C  0.15121334  0.29574144  0.48379249    -0.12000
C352        C  0.18665517  0.26051390  0.48349893    -0.10400
H353        H  0.28030195  0.32832335  0.52266336     0.07500
H354        H  0.21873503  0.39018380  0.52173580     0.11200
H355        H  0.11535178  0.28602705  0.47281174     0.10900
H356        H  0.17719759  0.22477184  0.47176578     0.07500
C357        C  0.18283236  0.74392137  0.51466947    -0.11600
C358        C  0.23049446  0.73239574  0.50346838     0.05500
C359        C  0.24186575  0.68475501  0.49174769    -0.10400
C360        C  0.20647381  0.64944339  0.49146780    -0.12000
C361        C  0.15879848  0.66102122  0.50253014    -0.01800
C362        C  0.14735102  0.70868876  0.51401485    -0.10900
C363        C  0.26812566  0.76996999  0.50390144     0.05600
H364        H  0.27804440  0.67483331  0.48212204     0.07500
H365        H  0.21643020  0.61313954  0.48202424     0.10900
H366        H  0.11104208  0.71873460  0.52304800     0.11200
H367        H  0.17300763  0.78011206  0.52460655     0.07500
C368        C  0.25807666  0.81646544  0.48724465    -0.11600
C369        C  0.29326348  0.85196751  0.48789125    -0.10900
C370        C  0.33952453  0.84165335  0.50462694    -0.01800
C371        C  0.34971488  0.79513408  0.52113561    -0.12000
C372        C  0.31433799  0.75973701  0.52097765    -0.10400
H373        H  0.22314980  0.82529038  0.47299743     0.07500
H374        H  0.28444704  0.88730251  0.47440025     0.11200
H375        H  0.38494454  0.78617179  0.53456934     0.10900
H376        H  0.32304760  0.72449765  0.53475888     0.07500
C377        C  0.74466446  0.50569600  0.18287485    -0.11600
C378        C  0.73250084  0.49938952  0.23142129     0.05500
C379        C  0.68420922  0.49227660  0.24349814    -0.10400
C380        C  0.64892608  0.49170196  0.20804844    -0.12000
C381        C  0.66100203  0.49807295  0.15952842    -0.01800
C382        C  0.70939308  0.50481054  0.14733944    -0.10900
C383        C  0.76997996  0.49954556  0.26928971     0.05600
H384        H  0.67364995  0.48639193  0.28038292     0.07500
H385        H  0.61213452  0.48601410  0.21875150     0.10900
H386        H  0.72005825  0.51001037  0.11036245     0.11200
H387        H  0.78141324  0.51194895  0.17233012     0.07500
C388        C  0.81497128  0.47871316  0.26072663    -0.11600
C389        C  0.85015140  0.47868633  0.29628344    -0.10900
C390        C  0.84095730  0.49896087  0.34140810    -0.01800
C391        C  0.79586647  0.51923049  0.35034076    -0.12000
C392        C  0.76090381  0.51990525  0.31453722    -0.10400
H393        H  0.82284149  0.46179835  0.22671628     0.07500
H394        H  0.88440424  0.46223933  0.28865618     0.11200
H395        H  0.78794369  0.53543691  0.38471815     0.10900
H396        H  0.72695243  0.53692501  0.32214505     0.07500
C397        C  0.18464659  0.51766365  0.25797291    -0.11600
C398        C  0.23165178  0.50377379  0.26933801     0.05500
C399        C  0.24229220  0.49059324  0.31680694    -0.10400
C400        C  0.20673673  0.49086700  0.35197376    -0.12000
C401        C  0.15959472  0.50404322  0.34047564    -0.01800
C402        C  0.14897531  0.51768353  0.29311119    -0.10900
C403        C  0.26936004  0.50261304  0.23178214     0.05600
H404        H  0.27796161  0.47912090  0.32662907     0.07500
H405        H  0.21606300  0.47991648  0.38805170     0.10900
H406        H  0.11314386  0.52862159  0.28320723     0.11200
H407        H  0.17550075  0.52888099  0.22194001     0.07500
C408        C  0.25883989  0.48625219  0.18530049    -0.11600
C409        C  0.29423612  0.48531733  0.14990426    -0.10900
C410        C  0.34109589  0.50036337  0.16026972    -0.01800
C411        C  0.35170598  0.51640743  0.20684370    -0.12000
C412        C  0.31622589  0.51765039  0.24213618    -0.10400
H413        H  0.22332034  0.47360250  0.17640870     0.07500
H414        H  0.28498846  0.47233354  0.11451555     0.11200
H415        H  0.38732416  0.52869026  0.21588425     0.10900
H416        H  0.32534753  0.53108200  0.27738049     0.07500
C417        C  0.18649334  0.48515725  0.74094165    -0.11600
C418        C  0.23307478  0.50084430  0.73002179     0.05500
C419        C  0.24284866  0.51706343  0.68326598    -0.10400
C420        C  0.20702072  0.51735435  0.64831052    -0.12000
C421        C  0.16044535  0.50188275  0.65939884    -0.01800
C422        C  0.15055969  0.48594767  0.70615350    -0.10900
C423        C  0.27106017  0.50063386  0.76741202     0.05600
H424        H  0.27803913  0.53020714  0.67379063     0.07500
H425        H  0.21569914  0.53022929  0.61269909     0.10900
H426        H  0.11518556  0.47331984  0.71571301     0.11200
H427        H  0.17786046  0.47158356  0.77627797     0.07500
C428        C  0.25986983  0.51182959  0.81525519    -0.11600
C429        C  0.29521155  0.51152038  0.85058534    -0.10900
C430        C  0.34281846  0.50049146  0.83896885    -0.01800
C431        C  0.35421680  0.48942405  0.79109281    -0.12000
C432        C  0.31870464  0.48932625  0.75576064    -0.10400
H433        H  0.22380866  0.52159541  0.82541193     0.07500
H434        H  0.28524197  0.52054529  0.88699255     0.11200
H435        H  0.39049164  0.48033501  0.78095080     0.10900
H436        H  0.32849178  0.47975192  0.71945083     0.07500
C437        C  0.81534493  0.51765242  0.74151795    -0.11600
C438        C  0.76876542  0.50156534  0.73127264     0.05500
C439        C  0.75844346  0.48572504  0.68450866    -0.10400
C440        C  0.79374621  0.48597456  0.64901599    -0.12000
C441        C  0.84044858  0.50136091  0.65957948    -0.01800
C442        C  0.85080940  0.51722230  0.70622239    -0.10900
C443        C  0.73127283  0.50110078  0.76921996     0.05600
H444        H  0.72328177  0.47228248  0.67541278     0.07500
H445        H  0.78464340  0.47325612  0.61348959     0.10900
H446        H  0.88627216  0.52986430  0.71536970     0.11200
H447        H  0.82440855  0.53113398  0.77673838     0.07500
C448        C  0.74318045  0.49094794  0.81720365    -0.11600
C449        C  0.70804512  0.49060039  0.85281810    -0.10900
C450        C  0.66001342  0.49984190  0.84125962    -0.01800
C451        C  0.64800700  0.50978354  0.79332047    -0.12000
C452        C  0.68321436  0.51068322  0.75782151    -0.10400
H453        H  0.77960126  0.48251533  0.82727214     0.07500
H454        H  0.71851188  0.48255844  0.88934177     0.11200
H455        H  0.61140870  0.51747766  0.78319397     0.10900
H456        H  0.67275504  0.51958719  0.72152517     0.07500
C457        C  0.81536219  0.75702699  0.01600778    -0.11600
C458        C  0.76901512  0.76786584  0.99957808     0.05500
C459        C  0.75936611  0.81458964  0.98333614    -0.10400
C460        C  0.79494202  0.84974168  0.98402298    -0.12000
C461        C  0.84121900  0.83893940  0.00046054    -0.01800
C462        C  0.85112641  0.79209484  0.01622563    -0.10900
C463        C  0.73084044  0.73071476  0.99967868     0.05600
H464        H  0.72438873  0.82393271  0.96955777     0.07500
H465        H  0.78631175  0.88531705  0.97106036     0.10900
H466        H  0.88634306  0.78268954  0.02939098     0.11200
H467        H  0.82384464  0.72160725  0.02946020     0.07500
C468        C  0.74159972  0.68285995  0.98824254    -0.11600
C469        C  0.70603792  0.64773237  0.98921052    -0.10900
C470        C  0.65871318  0.65962555  0.00124302    -0.01800
C471        C  0.64771903  0.70757645  0.01217924    -0.12000
C472        C  0.68341339  0.74268069  0.01155610    -0.10400
H473        H  0.77749363  0.67256420  0.97799155     0.07500
H474        H  0.71559361  0.61127423  0.97996432     0.11200
H475        H  0.61163510  0.71793868  0.02176827     0.10900
H476        H  0.67398121  0.77906109  0.02118786     0.07500
C477        C  0.75895436  0.18351480  0.01764079    -0.11600
C478        C  0.76821508  0.22947599  0.99901458     0.05500
C479        C  0.81403383  0.23928319  0.98052959    -0.10400
C480        C  0.84971464  0.20415401  0.98098508    -0.12000
C481        C  0.84023963  0.15819186  0.99933429    -0.01800
C482        C  0.79443146  0.14821572  0.01751535    -0.10900
C483        C  0.73036349  0.26706266  0.99922044     0.05600
H484        H  0.82221989  0.27398303  0.96515156     0.07500
H485        H  0.88454753  0.21277303  0.96631111     0.10900
H486        H  0.78618992  0.11327932  0.03237144     0.11200
H487        H  0.72443763  0.17495905  0.03301653     0.07500
C488        C  0.68223955  0.25511583  0.99057249    -0.11600
C489        C  0.64668837  0.29039673  0.99125228    -0.10900
C490        C  0.65842128  0.33861538  0.00018104    -0.01800
C491        C  0.70653808  0.35054437  0.00873551    -0.12000
C492        C  0.74199390  0.31522547  0.00842126    -0.10400
H493        H  0.67205381  0.21852895  0.98262690     0.07500
H494        H  0.61006264  0.27990107  0.98423397     0.11200
H495        H  0.71687509  0.38721436  0.01612453     0.10900
H496        H  0.77849610  0.32562548  0.01610680     0.07500
C497        C  0.23972802  0.81310399  0.02020993    -0.11600
C498        C  0.23041615  0.76754924  0.00074755     0.05500
C499        C  0.18501232  0.75849408  0.98098916    -0.10400
C500        C  0.14981362  0.79407742  0.98089846    -0.12000
C501        C  0.15940283  0.83966048  0.00004080    -0.01800
C502        C  0.20479074  0.84884476  0.01950215    -0.10900
C503        C  0.26804868  0.72986864  0.00104426     0.05600
H504        H  0.17682022  0.72412531  0.96497111     0.07500
H505        H  0.11526920  0.78610775  0.96523613     0.10900
H506        H  0.21307021  0.88345623  0.03498924     0.11200
H507        H  0.27388059  0.82104354  0.03665927     0.07500
C508        C  0.31635678  0.74217432  0.99424829    -0.11600
C509        C  0.35192062  0.70707828  0.99515554    -0.10900
C510        C  0.34004096  0.65863641  0.00224387    -0.01800
C511        C  0.29173367  0.64623933  0.00902884    -0.12000
C512        C  0.25618195  0.68144016  0.00851987    -0.10400
H513        H  0.32674756  0.77895343  0.98750264     0.07500
H514        H  0.38869326  0.71793112  0.98958124     0.11200
H515        H  0.28129804  0.60930702  0.01493090     0.10900
H516        H  0.21947038  0.67073199  0.01466727     0.07500
C517        C  0.25616190  0.31678321  0.99728348    -0.11600
C518        C  0.26855134  0.26815852  0.00221481     0.05500
C519        C  0.31710985  0.25598136  0.00700717    -0.10400
C520        C  0.35239868  0.29141153  0.00642466    -0.12000
C521        C  0.34003312  0.34003471  0.00148439    -0.01800
C522        C  0.29143713  0.35229010  0.99710189    -0.10900
C523        C  0.23110143  0.23025794  0.00223452     0.05600
H524        H  0.32792928  0.21902699  0.01182527     0.07500
H525        H  0.38940251  0.28060297  0.01019950     0.10900
H526        H  0.28056181  0.38933696  0.99309414     0.11200
H527        H  0.21921057  0.32745100  0.99278655     0.07500
C528        C  0.18638124  0.23837643  0.02387470    -0.11600
C529        C  0.15119266  0.20279899  0.02365581    -0.10900
C530        C  0.16014537  0.15808550  0.00238942    -0.01800
C531        C  0.20491811  0.14967510  0.98119797    -0.12000
C532        C  0.23982385  0.18550730  0.98070588    -0.10400
H533        H  0.17870592  0.27202891  0.04156391     0.07500
H534        H  0.11714646  0.21006147  0.04069946     0.11200
H535        H  0.21262817  0.11569363  0.96410079     0.10900
H536        H  0.27343230  0.17831205  0.96283912     0.07500
C537        C  0.81665393  0.98901357  0.75759960    -0.11600
C538        C  0.76969085  0.00362237  0.76821450     0.05500
C539        C  0.75892317  0.01798034  0.81536247    -0.10400
C540        C  0.79405612  0.01721508  0.85101700    -0.12000
C541        C  0.84098052  0.00273020  0.84023680    -0.01800
C542        C  0.85190658  0.98886974  0.79307541    -0.10900
C543        C  0.73209821  0.00342937  0.73038533     0.05600
H544        H  0.72343699  0.03034882  0.82470497     0.07500
H545        H  0.78457108  0.02851835  0.88692234     0.10900
H546        H  0.88759781  0.97707671  0.78368911     0.11200
H547        H  0.82611163  0.97681897  0.72201276     0.07500
C548        C  0.74342380  0.01492879  0.68256202    -0.11600
C549        C  0.70824512  0.01402658  0.64696130    -0.10900
C550        C  0.66073756  0.00210272  0.65838897    -0.01800
C551        C  0.64932439  0.99095244  0.70621279    -0.12000
C552        C  0.68457746  0.99134880  0.74168402    -0.10400
H553        H  0.77940438  0.02526333  0.67262708     0.07500
H554        H  0.71822433  0.02319125  0.61056188     0.11200
H555        H  0.61317293  0.98125738  0.71624253     0.10900
H556        H  0.67463360  0.98138374  0.77785892     0.07500
C557        C  0.24146038  0.97687919  0.81627445    -0.11600
C558        C  0.23191398  0.99366643  0.76966730     0.05500
C559        C  0.18549028  0.00988057  0.75887017    -0.10400
C560        C  0.14969382  0.00967321  0.79381659    -0.12000
C561        C  0.15958265  0.99391308  0.84064180    -0.01800
C562        C  0.20577970  0.97720609  0.85140625    -0.10900
C563        C  0.27011548  0.99442449  0.73246590     0.05600
H564        H  0.17695386  0.02371774  0.72361567     0.07500
H565        H  0.11452050  0.02294728  0.78440628     0.10900
H566        H  0.21433313  0.96414334  0.88697461     0.11200
H567        H  0.27645134  0.96312056  0.82557824     0.07500
C568        C  0.31772763  0.00543723  0.74458830    -0.11600
C569        C  0.35338420  0.00647105  0.70939344    -0.10900
C570        C  0.34216360  0.99703226  0.66114956    -0.01800
C571        C  0.29464404  0.98585796  0.64912912    -0.12000
C572        C  0.25916369  0.98437904  0.68432220    -0.10400
H573        H  0.32737288  0.01404595  0.78117366     0.07500
H574        H  0.38960841  0.01530455  0.71992730     0.11200
H575        H  0.28480782  0.97778152  0.61246331     0.10900
H576        H  0.22316582  0.97475986  0.67378745     0.07500
C577        C  0.24132952  0.01900499  0.18387275    -0.11600
C578        C  0.23067784  0.00700433  0.23166634     0.05500
C579        C  0.18345637  0.99431617  0.24353348    -0.10400
C580        C  0.14783507  0.99328426  0.20840787    -0.12000
C581        C  0.15867917  0.00454257  0.16047223    -0.01800
C582        C  0.20580496  0.01761791  0.14866828    -0.10900
C583        C  0.26877114  0.00682158  0.26885988     0.05600
H584        H  0.17418087  0.98417955  0.27985044     0.07500
H585        H  0.11196028  0.98286304  0.21871783     0.10900
H586        H  0.21526597  0.02705962  0.11220043     0.11200
H587        H  0.27712657  0.02976961  0.17368726     0.07500
C588        C  0.31492914  0.98995881  0.25807623    -0.11600
C589        C  0.35043526  0.98877347  0.29334800    -0.10900
C590        C  0.34049150  0.00405556  0.34033673    -0.01800
C591        C  0.29441209  0.02101963  0.35108640    -0.12000
C592        C  0.25905337  0.02262078  0.31571127    -0.10400
H593        H  0.32340041  0.97679293  0.22256795     0.07500
H594        H  0.38548588  0.97516279  0.28397831     0.11200
H595        H  0.28577436  0.03357100  0.38678387     0.10900
H596        H  0.22414400  0.03659808  0.32499504     0.07500
C597        C  0.68193877  0.99492172  0.25489171    -0.11600
C598        C  0.73057549  0.99242870  0.26755107     0.05500
C599        C  0.74277028  0.99096975  0.31643932    -0.10400
C600        C  0.70743549  0.99265703  0.35175849    -0.12000
C601        C  0.65881826  0.99551999  0.33919357    -0.01800
C602        C  0.64648742  0.99633730  0.29027934    -0.10900
C603        C  0.76862087  0.99223020  0.23019268     0.05600
H604        H  0.77974630  0.98805991  0.32755900     0.07500
H605        H  0.71837009  0.99156106  0.38898998     0.10900
H606        H  0.60942342  0.99844633  0.27922572     0.11200
H607        H  0.67122599  0.99671198  0.21763138     0.07500
C608        C  0.76201624  0.96817538  0.18634765    -0.11600
C609        C  0.79770781  0.96898608  0.15117571    -0.10900
C610        C  0.84093673  0.99332559  0.15937935    -0.01800
C611        C  0.84793026  0.01657711  0.20338489    -0.12000
C612        C  0.81203952  0.01645467  0.23816158    -0.10400
H613        H  0.72944282  0.94840672  0.17932217     0.07500
H614        H  0.79169242  0.95023311  0.11771775     0.11200
H615        H  0.88074812  0.03596379  0.21045988     0.10900
H616        H  0.81806011  0.03618083  0.27100727     0.07500
C617        C  0.96761309  0.30735580  0.73326497    -0.11600
C618        C  0.99872258  0.26788257  0.73002118     0.05500
C619        C  0.02999728  0.26475686  0.69066468    -0.10400
C620        C  0.03014816  0.30034698  0.65534129    -0.12000
C621        C  0.99950988  0.34000442  0.65905419    -0.01800
C622        C  0.96827460  0.34328725  0.69828419    -0.10900
C623        C  0.99888261  0.23038623  0.76781213     0.05600
H624        H  0.05483826  0.23514133  0.68756224     0.07500
H625        H  0.05481439  0.29737418  0.62553152     0.10900
H626        H  0.94390207  0.37330332  0.70146437     0.11200
H627        H  0.94253271  0.31026367  0.76271054     0.07500
C628        C  0.99579413  0.24310688  0.81644353    -0.11600
C629        C  0.99615817  0.20790406  0.85212278    -0.10900
C630        C  0.99948104  0.15909398  0.83997662    -0.01800
C631        C  0.00251692  0.14642251  0.79123436    -0.12000
C632        C  0.00231855  0.18167010  0.75559628    -0.10400
H633        H  0.99373810  0.28040833  0.82695860     0.07500
H634        H  0.99382480  0.21903273  0.88923414     0.11200
H635        H  0.00507448  0.10921886  0.78048241     0.10900
H636        H  0.00424053  0.17075786  0.71839282     0.07500
C637        C  0.99812943  0.81749648  0.75560404    -0.11600
C638        C  0.00168839  0.76875525  0.76801921     0.05500
C639        C  0.00478391  0.75622334  0.81675736    -0.10400
C640        C  0.00459817  0.79150428  0.85218995    -0.12000
C641        C  0.00078712  0.84022515  0.83982711    -0.01800
C642        C  0.99752999  0.85278674  0.79107056    -0.10900
C643        C  0.00217730  0.73111410  0.73040062     0.05600
H644        H  0.00671347  0.71903012  0.82770889     0.07500
H645        H  0.00729484  0.78047081  0.88932914     0.10900
H646        H  0.99464125  0.88994886  0.78017209     0.11200
H647        H  0.99648189  0.82854330  0.71841387     0.07500
C648        C  0.97449774  0.73626884  0.68859113    -0.11600
C649        C  0.97503049  0.70089652  0.65328667    -0.10900
C650        C  0.00237153  0.65922360  0.65954821    -0.01800
C651        C  0.02976169  0.65365604  0.70127217    -0.12000
C652        C  0.03012748  0.68952702  0.73611290    -0.10400
H653        H  0.95181818  0.76728441  0.68338891     0.07500
H654        H  0.95324993  0.70561702  0.62149798     0.11200
H655        H  0.05153381  0.62195170  0.70650897     0.10900
H656        H  0.05270263  0.68483370  0.76729089     0.07500
C657        C  0.00038877  0.75711589  0.18349975    -0.11600
C658        C  0.99337101  0.76968688  0.23178647     0.05500
C659        C  0.98724818  0.81825656  0.24361864    -0.10400
C660        C  0.98877734  0.85349639  0.20813562    -0.12000
C661        C  0.99614539  0.84095158  0.15990097    -0.01800
C662        C  0.00162976  0.79233036  0.14794229    -0.10900
C663        C  0.99336640  0.73241294  0.26978951     0.05600
H664        H  0.98086018  0.82907847  0.28032966     0.07500
H665        H  0.98392878  0.89056324  0.21857633     0.10900
H666        H  0.00743489  0.78141297  0.11114572     0.11200
H667        H  0.00589988  0.72011345  0.17322336     0.07500
C668        C  0.97292424  0.68712596  0.26144244    -0.11600
C669        C  0.97437370  0.65163333  0.29677640    -0.10900
C670        C  0.99567603  0.66090875  0.34141624    -0.01800
C671        C  0.01531496  0.70639689  0.35013922    -0.12000
C672        C  0.01450029  0.74164333  0.31458852    -0.10400
H673        H  0.95550046  0.67917840  0.22770613     0.07500
H674        H  0.95833708  0.61707460  0.28936653     0.11200
H675        H  0.03223281  0.71442615  0.38413277     0.10900
H676        H  0.03129012  0.77583428  0.32192725     0.07500
C677        C  0.00242248  0.24426611  0.18306706    -0.11600
C678        C  0.00404092  0.23169210  0.23186204     0.05500
C679        C  0.00481488  0.18284197  0.24432333    -0.10400
C680        C  0.00388301  0.14744663  0.20885432    -0.12000
C681        C  0.00225205  0.15999742  0.15997492    -0.01800
C682        C  0.00156934  0.20890860  0.14758470    -0.10900
C683        C  0.00431469  0.26941298  0.26953071     0.05600
H684        H  0.00668642  0.17191611  0.28154776     0.07500
H685        H  0.00459573  0.11020622  0.21984264     0.10900
H686        H  0.00015928  0.22002008  0.11039864     0.11200
H687        H  0.00102832  0.28153436  0.17225316     0.07500
C688        C  0.03041079  0.31208487  0.26302661    -0.11600
C689        C  0.02955190  0.34807739  0.29788046    -0.10900
C690        C  0.00328252  0.34175604  0.34029844    -0.01800
C691        C  0.97768935  0.29900598  0.34719267    -0.12000
C692        C  0.97791091  0.26334976  0.31204284    -0.10400
H693        H  0.05182601  0.31750891  0.23113028     0.07500
H694        H  0.05005829  0.38052723  0.29206145     0.11200
H695        H  0.95680395  0.29353341  0.37946494     0.10900
H696        H  0.95677884  0.23133463  0.31784810     0.07500
loop_ 
_geom_bond_atom_site_label_1 
_geom_bond_atom_site_label_2 
_geom_bond_distance 
_geom_bond_site_symmetry_2 
_ccdc_geom_bond_type 
O1          Zr37   2.442   1_445  S
O1           C12   1.293       .  A
O2          Zr36   2.434   1_545  S
O2           C13   1.292   1_455  A
O3           Zr9   2.444       .  S
O3           C14   1.293       .  A
O4           Zr9   2.443   1_656  S
O4           C15   1.294       .  A
O5          Zr39   2.436   1_544  S
O5           C15   1.293   1_554  A
O6          Zr38   2.432   1_546  S
O6           C14   1.292   1_556  A
O7           Zr9   2.440   1_656  S
O7           C13   1.293       .  A
O8           Zr9   2.442       .  S
O8           C12   1.293       .  A
Zr9          O10   2.338   1_454  S
Zr9          O11   2.336       .  S
Zr9          O19   2.344   1_455  S
Zr9          O17   2.345   1_554  S
O10         Zr36   2.335   1_645  S
O10         Zr39   2.338   1_545  S
O11         Zr37   2.333   1_445  S
O11         Zr38   2.339   1_545  S
C12         C681   1.488       .  S
C13         C630   1.484       .  S
C14         C530   1.477       .  S
C15         C481   1.480       .  S
H16          O17   0.965       .  S
O17         Zr36   2.342   1_545  S
O17         Zr38   2.344   1_546  S
H18          O19   0.965       .  S
O19         Zr37   2.337   1_545  S
O19         Zr39   2.345   1_544  S
O20         Zr36   2.435       .  S
O20          C43   1.292       .  A
O21         Zr37   2.426       .  S
O21          C44   1.291       .  A
O22         Zr38   2.439   1_556  S
O22          C45   1.293       .  A
O23         Zr39   2.438   1_545  S
O23          C46   1.292       .  A
O24         Zr39   2.437   1_554  S
O24          C47   1.292       .  A
O25         Zr38   2.440   1_545  S
O25          C48   1.293       .  A
O26         Zr40   2.438       .  S
O26          C49   1.292   1_556  A
O27         Zr40   2.439   1_654  S
O27          C50   1.293       .  A
O28         Zr38   2.437       .  S
O28          C49   1.292       .  A
O29         Zr39   2.440       .  S
O29          C50   1.293   1_556  A
O30         Zr36   2.437       .  S
O30          C45   1.293       .  A
O31         Zr37   2.434   1_445  S
O31          C48   1.292       .  A
O32         Zr37   2.436       .  S
O32          C47   1.292       .  A
O33         Zr36   2.440   1_645  S
O33          C46   1.293       .  A
O34         Zr40   2.440   1_655  S
O34          C43   1.293   1_655  A
O35         Zr40   2.433   1_654  S
O35          C44   1.292       .  A
Zr36         O42   2.337       .  S
Zr36         O54   2.341   1_455  S
Zr37         O41   2.338       .  S
Zr37         O52   2.345   1_655  S
Zr38         O42   2.337   1_554  S
Zr38         O52   2.339       .  S
Zr39         O41   2.333   1_556  S
Zr39         O54   2.340       .  S
Zr40         O41   2.337   1_456  S
Zr40         O42   2.335       .  S
Zr40         O54   2.341   1_455  S
Zr40         O52   2.344   1_556  S
C43         C641   1.483       .  S
C44         C661   1.478       .  S
C45         C561   1.481       .  S
C46         C541   1.481       .  S
C47         C610   1.476       .  S
C48         C581   1.482       .  S
C49         C501   1.479       .  S
C50         C461   1.482       .  S
H51          O52   0.965       .  S
H53          O54   0.965       .  S
O55         Zr91   2.438       .  S
O55          C66   1.292       .  A
O56         Zr90   2.442   1_655  S
O56          C67   1.293   1_655  A
O57         Zr63   2.440       .  S
O57          C68   1.293       .  A
O58         Zr63   2.440   1_655  S
O58          C69   1.293       .  A
O59         Zr93   2.445       .  S
O59          C69   1.294       .  A
O60         Zr92   2.434       .  S
O60          C68   1.292       .  A
O61         Zr63   2.438       .  S
O61          C67   1.292       .  A
O62         Zr63   2.439       .  S
O62          C66   1.292       .  A
Zr63         O64   2.341   1_455  S
Zr63         O65   2.339       .  S
Zr63         O73   2.340   1_455  S
Zr63         O71   2.340       .  S
O64         Zr90   2.337   1_655  S
O64         Zr93   2.338       .  S
O65         Zr91   2.341       .  S
O65         Zr92   2.337       .  S
C66         C690   1.475       .  S
C67         C621   1.473   1_455  S
C68         C350   1.481       .  S
C69         C301   1.488       .  S
H70          O71   0.966       .  S
O71         Zr90   2.343       .  S
O71         Zr92   2.341       .  S
H72          O73   0.965       .  S
O73         Zr91   2.340   1_655  S
O73         Zr93   2.340       .  S
O74         Zr90   2.433       .  S
O74          C97   1.292       .  A
O75         Zr91   2.439   1_655  S
O75          C98   1.292       .  A
O76         Zr92   2.435       .  S
O76          C99   1.292       .  A
O77         Zr93   2.434       .  S
O77         C100   1.292       .  A
O78         Zr93   2.434       .  S
O78         C101   1.292       .  A
O79         Zr92   2.438       .  S
O79         C102   1.293       .  A
O80         Zr94   2.437   1_455  S
O80         C103   1.292       .  A
O81         Zr94   2.435       .  S
O81         C104   1.292       .  A
O82         Zr92   2.431       .  S
O82         C103   1.291       .  A
O83         Zr93   2.441       .  S
O83         C104   1.293       .  A
O84         Zr90   2.442       .  S
O84          C99   1.294       .  A
O85         Zr91   2.435       .  S
O85         C102   1.292       .  A
O86         Zr91   2.437   1_655  S
O86         C101   1.292       .  A
O87         Zr90   2.445   1_655  S
O87         C100   1.294       .  A
O88         Zr94   2.432       .  S
O88          C97   1.291   1_655  A
O89         Zr94   2.434       .  S
O89          C98   1.292       .  A
Zr90         O96   2.340       .  S
Zr90        O108   2.343   1_455  S
Zr91         O95   2.338   1_455  S
Zr91        O106   2.341       .  S
Zr92         O96   2.335       .  S
Zr92        O106   2.339       .  S
Zr93         O95   2.339       .  S
Zr93        O108   2.342       .  S
Zr94         O95   2.338       .  S
Zr94         O96   2.336   1_655  S
Zr94        O108   2.341       .  S
Zr94        O106   2.337   1_655  S
C97         C650   1.468       .  S
C98         C670   1.476       .  S
C99         C421   1.481       .  S
C100        C441   1.482       .  S
C101        C390   1.477       .  S
C102        C401   1.481       .  S
C103        C361   1.479       .  S
C104        C321   1.483       .  S
H105        O106   0.965       .  S
H107        O108   0.965       .  S
O109       Zr145   2.435       .  S
O109        C120   1.293       .  A
O110       Zr144   2.446       .  S
O110        C121   1.294       .  A
O111       Zr117   2.439       .  S
O111        C122   1.293       .  A
O112       Zr117   2.435   1_545  S
O112        C123   1.292       .  A
O113       Zr147   2.428       .  S
O113        C123   1.291       .  A
O114       Zr146   2.433       .  S
O114        C122   1.292       .  A
O115       Zr117   2.435   1_545  S
O115        C121   1.292       .  A
O116       Zr117   2.442       .  S
O116        C120   1.293       .  A
Zr117       O118   2.339   1_565  S
Zr117       O119   2.335       .  S
Zr117       O127   2.340   1_565  S
Zr117       O125   2.342       .  S
O118       Zr144   2.335       .  S
O118       Zr147   2.338       .  S
O119       Zr145   2.337       .  S
O119       Zr146   2.337       .  S
C120        C601   1.485       .  S
C121        C590   1.482       .  S
C122        C241   1.481       .  S
C123        C221   1.473       .  S
H124        O125   0.967       .  S
O125       Zr144   2.343   1_565  S
O125       Zr146   2.343       .  S
H126        O127   0.966       .  S
O127       Zr145   2.339   1_545  S
O127       Zr147   2.342       .  S
O128       Zr144   2.442   1_565  S
O128        C151   1.294       .  A
O129       Zr145   2.437   1_545  S
O129        C152   1.293       .  A
O130       Zr146   2.440       .  S
O130        C153   1.293       .  A
O131       Zr147   2.441       .  S
O131        C154   1.293       .  A
O132       Zr147   2.439       .  S
O132        C155   1.293       .  A
O133       Zr146   2.437       .  S
O133        C156   1.292       .  A
O134       Zr148   2.440       .  S
O134        C157   1.292       .  A
O135       Zr148   2.436   1_545  S
O135        C158   1.292       .  A
O136       Zr146   2.432       .  S
O136        C157   1.291       .  A
O137       Zr147   2.436       .  S
O137        C158   1.293       .  A
O138       Zr144   2.435   1_565  S
O138        C153   1.292       .  A
O139       Zr145   2.439       .  S
O139        C156   1.293       .  A
O140       Zr145   2.436   1_545  S
O140        C155   1.292       .  A
O141       Zr144   2.439       .  S
O141        C154   1.293       .  A
O142       Zr148   2.436       .  S
O142        C151   1.292       .  A
O143       Zr148   2.439       .  S
O143        C152   1.293   1_565  A
Zr144       O150   2.340   1_545  S
Zr144       O162   2.342       .  S
Zr145       O149   2.338   1_565  S
Zr145       O160   2.341       .  S
Zr146       O150   2.337       .  S
Zr146       O160   2.342       .  S
Zr147       O149   2.335       .  S
Zr147       O162   2.341       .  S
Zr148       O149   2.336   1_565  S
Zr148       O150   2.337       .  S
Zr148       O162   2.344   1_565  S
Zr148       O160   2.340       .  S
C151        C570   1.483       .  S
C152        C550   1.483       .  S
C153        C370   1.479       .  S
C154        C341   1.483       .  S
C155        C310   1.481       .  S
C156        C330   1.481       .  S
C157        C261   1.467       .  S
C158        C281   1.484       .  S
H159        O160   0.967       .  S
H161        O162   0.967       .  S
O163       Zr199   2.437       .  S
O163        C174   1.293       .  A
O164       Zr198   2.439       .  S
O164        C175   1.293       .  A
O165       Zr171   2.443       .  S
O165        C176   1.294       .  A
O166       Zr171   2.448   1_556  S
O166        C177   1.295       .  A
O167       Zr201   2.428       .  S
O167        C177   1.291       .  A
O168       Zr200   2.441       .  S
O168        C176   1.294       .  A
O169       Zr171   2.432       .  S
O169        C175   1.292       .  A
O170       Zr171   2.438       .  S
O170        C174   1.293       .  A
Zr171       O172   2.342   1_554  S
Zr171       O173   2.338       .  S
Zr171       O181   2.338   1_554  S
Zr171       O179   2.341       .  S
O172       Zr198   2.337   1_556  S
O172       Zr201   2.341       .  S
O173       Zr199   2.337       .  S
O173       Zr200   2.344       .  S
C174        C521   1.484       .  S
C175        C510   1.482       .  S
C176        C410   1.483       .  S
C177        C430   1.482       .  S
H178        O179   0.964       .  S
O179       Zr198   2.336       .  S
O179       Zr200   2.339       .  S
H180        O181   0.964       .  S
O181       Zr199   2.338   1_556  S
O181       Zr201   2.346       .  S
O182       Zr198   2.431       .  S
O182        C205   1.292       .  A
O183       Zr199   2.438       .  S
O183        C206   1.293       .  A
O184       Zr200   2.442       .  S
O184        C207   1.293       .  A
O185       Zr201   2.439       .  S
O185        C208   1.293       .  A
O186       Zr201   2.434       .  S
O186        C209   1.292       .  A
O187       Zr200   2.434       .  S
O187        C210   1.292       .  A
O188       Zr202   2.432       .  S
O188        C211   1.292       .  A
O189       Zr202   2.435   1_556  S
O189        C212   1.292       .  A
O190       Zr200   2.448       .  S
O190        C211   1.294       .  A
O191       Zr201   2.431       .  S
O191        C212   1.291       .  A
O192       Zr198   2.432       .  S
O192        C207   1.291       .  A
O193       Zr199   2.440       .  S
O193        C210   1.293       .  A
O194       Zr199   2.443   1_556  S
O194        C209   1.293       .  A
O195       Zr198   2.440   1_556  S
O195        C208   1.293       .  A
O196       Zr202   2.442       .  S
O196        C205   1.294       .  A
O197       Zr202   2.445       .  S
O197        C206   1.294       .  A
Zr198       O204   2.345       .  S
Zr198       O216   2.343   1_554  S
Zr199       O203   2.339   1_554  S
Zr199       O214   2.341       .  S
Zr200       O204   2.336       .  S
Zr200       O214   2.338       .  S
Zr201       O203   2.337       .  S
Zr201       O216   2.336       .  S
Zr202       O203   2.336   1_554  S
Zr202       O204   2.340       .  S
Zr202       O216   2.343   1_554  S
Zr202       O214   2.339       .  S
C205        C470   1.481       .  S
C206        C490   1.485       .  S
C207        C250   1.471       .  S
C208        C270   1.485       .  S
C209        C290   1.476       .  S
C210        C230   1.482       .  S
C211        C381   1.485       .  S
C212        C450   1.481       .  S
H213        O214   0.964       .  S
H215        O216   0.965       .  S
C217        C218   1.406       .  A
C217        C222   1.395       .  A
C217        H227   1.082       .  S
C218        C223   1.484       .  S
C218        C219   1.406       .  A
C219        C220   1.396       .  A
C219        H224   1.083       .  S
C220        C221   1.404       .  A
C220        H225   1.083       .  S
C221        C222   1.403       .  A
C222        H226   1.083       .  S
C223        C228   1.405       .  A
C223        C232   1.406       .  A
C228        C229   1.395       .  A
C228        H233   1.082       .  S
C229        C230   1.405       .  A
C229        H234   1.083       .  S
C230        C231   1.407       .  A
C231        C232   1.397       .  A
C231        H235   1.083       .  S
C232        H236   1.083       .  S
C237        C238   1.407       .  A
C237        C242   1.397       .  A
C237        H247   1.082       .  S
C238        C243   1.490       .  S
C238        C239   1.408       .  A
C239        C240   1.397       .  A
C239        H244   1.082       .  S
C240        C241   1.406       .  A
C240        H245   1.083       .  S
C241        C242   1.405       .  A
C242        H246   1.083       .  S
C243        C248   1.409       .  A
C243        C252   1.408       .  A
C248        C249   1.398       .  A
C248        H253   1.082       .  S
C249        C250   1.402       .  A
C249        H254   1.084       .  S
C250        C251   1.401       .  A
C251        C252   1.397       .  A
C251        H255   1.083       .  S
C252        H256   1.082       .  S
C257        C258   1.406       .  A
C257        C262   1.397       .  A
C257        H267   1.083       .  S
C258        C263   1.483       .  S
C258        C259   1.407       .  A
C259        C260   1.398       .  A
C259        H264   1.083       .  S
C260        C261   1.402       .  A
C260        H265   1.084       .  S
C261        C262   1.401       .  A
C262        H266   1.084       .  S
C263        C268   1.405       .  A
C263        C272   1.404       .  A
C268        C269   1.398       .  A
C268        H273   1.083       .  S
C269        C270   1.407       .  A
C269        H274   1.083       .  S
C270        C271   1.407       .  A
C271        C272   1.397       .  A
C271        H275   1.083       .  S
C272        H276   1.083       .  S
C277        C278   1.408       .  A
C277        C282   1.398       .  A
C277        H287   1.082       .  S
C278        C283   1.491       .  S
C278        C279   1.406       .  A
C279        C280   1.397       .  A
C279        H284   1.082       .  S
C280        C281   1.406       .  A
C280        H285   1.083       .  S
C281        C282   1.406       .  A
C282        H286   1.083       .  S
C283        C288   1.407       .  A
C283        C292   1.409       .  A
C288        C289   1.396       .  A
C288        H293   1.082       .  S
C289        C290   1.403       .  A
C289        H294   1.083       .  S
C290        C291   1.404       .  A
C291        C292   1.399       .  A
C291        H295   1.083       .  S
C292        H296   1.082       .  S
C297        C298   1.407       .  A
C297        C302   1.398       .  A
C297        H307   1.082       .  S
C298        C303   1.492       .  S
C298        C299   1.408       .  A
C299        C300   1.400       .  A
C299        H304   1.083       .  S
C300        C301   1.407       .  A
C300        H305   1.083       .  S
C301        C302   1.406       .  A
C302        H306   1.083       .  S
C303        C308   1.408       .  A
C303        C312   1.407       .  A
C308        C309   1.398       .  A
C308        H313   1.082       .  S
C309        C310   1.405       .  A
C309        H314   1.083       .  S
C310        C311   1.405       .  A
C311        C312   1.398       .  A
C311        H315   1.083       .  S
C312        H316   1.082       .  S
C317        C318   1.406       .  A
C317        C322   1.398       .  A
C317        H327   1.083       .  S
C318        C323   1.488       .  S
C318        C319   1.407       .  A
C319        C320   1.398       .  A
C319        H324   1.083       .  S
C320        C321   1.406       .  A
C320        H325   1.083       .  S
C321        C322   1.406       .  A
C322        H326   1.083       .  S
C323        C328   1.407       .  A
C323        C332   1.406       .  A
C328        C329   1.399       .  A
C328        H333   1.083       .  S
C329        C330   1.406       .  A
C329        H334   1.083       .  S
C330        C331   1.405       .  A
C331        C332   1.397       .  A
C331        H335   1.083       .  S
C332        H336   1.083       .  S
C337        C338   1.406       .  A
C337        C342   1.398       .  A
C337        H347   1.083       .  S
C338        C343   1.488       .  S
C338        C339   1.407       .  A
C339        C340   1.397       .  A
C339        H344   1.083       .  S
C340        C341   1.405       .  A
C340        H345   1.083       .  S
C341        C342   1.406       .  A
C342        H346   1.083       .  S
C343        C348   1.407       .  A
C343        C352   1.406       .  A
C348        C349   1.398       .  A
C348        H353   1.083       .  S
C349        C350   1.406       .  A
C349        H354   1.083       .  S
C350        C351   1.405       .  A
C351        C352   1.396       .  A
C351        H355   1.083       .  S
C352        H356   1.082       .  S
C357        C358   1.406       .  A
C357        C362   1.396       .  A
C357        H367   1.083       .  S
C358        C363   1.485       .  S
C358        C359   1.405       .  A
C359        C360   1.396       .  A
C359        H364   1.083       .  S
C360        C361   1.406       .  A
C360        H365   1.083       .  S
C361        C362   1.405       .  A
C362        H366   1.083       .  S
C363        C368   1.405       .  A
C363        C372   1.406       .  A
C368        C369   1.396       .  A
C368        H373   1.083       .  S
C369        C370   1.405       .  A
C369        H374   1.083       .  S
C370        C371   1.406       .  A
C371        C372   1.397       .  A
C371        H375   1.083       .  S
C372        H376   1.083       .  S
C377        C378   1.407       .  A
C377        C382   1.398       .  A
C377        H387   1.083       .  S
C378        C383   1.488       .  S
C378        C379   1.406       .  A
C379        C380   1.397       .  A
C379        H384   1.082       .  S
C380        C381   1.406       .  A
C380        H385   1.083       .  S
C381        C382   1.408       .  A
C382        H386   1.083       .  S
C383        C388   1.406       .  A
C383        C392   1.407       .  A
C388        C389   1.397       .  A
C388        H393   1.082       .  S
C389        C390   1.404       .  A
C389        H394   1.083       .  S
C390        C391   1.404       .  A
C391        C392   1.398       .  A
C391        H395   1.083       .  S
C392        H396   1.083       .  S
C397        C398   1.406       .  A
C397        C402   1.398       .  A
C397        H407   1.083       .  S
C398        C403   1.486       .  S
C398        C399   1.405       .  A
C399        C400   1.396       .  A
C399        H404   1.083       .  S
C400        C401   1.405       .  A
C400        H405   1.083       .  S
C401        C402   1.406       .  A
C402        H406   1.083       .  S
C403        C408   1.406       .  A
C403        C412   1.406       .  A
C408        C409   1.398       .  A
C408        H413   1.083       .  S
C409        C410   1.406       .  A
C409        H414   1.083       .  S
C410        C411   1.406       .  A
C411        C412   1.398       .  A
C411        H415   1.083       .  S
C412        H416   1.083       .  S
C417        C418   1.407       .  A
C417        C422   1.397       .  A
C417        H427   1.082       .  S
C418        C423   1.489       .  S
C418        C419   1.406       .  A
C419        C420   1.398       .  A
C419        H424   1.083       .  S
C420        C421   1.406       .  A
C420        H425   1.083       .  S
C421        C422   1.404       .  A
C422        H426   1.083       .  S
C423        C428   1.406       .  A
C423        C432   1.407       .  A
C428        C429   1.396       .  A
C428        H433   1.082       .  S
C429        C430   1.404       .  A
C429        H434   1.083       .  S
C430        C431   1.407       .  A
C431        C432   1.399       .  A
C431        H435   1.083       .  S
C432        H436   1.083       .  S
C437        C438   1.407       .  A
C437        C442   1.397       .  A
C437        H447   1.082       .  S
C438        C443   1.490       .  S
C438        C439   1.407       .  A
C439        C440   1.398       .  A
C439        H444   1.082       .  S
C440        C441   1.406       .  A
C440        H445   1.083       .  S
C441        C442   1.405       .  A
C442        H446   1.083       .  S
C443        C448   1.407       .  A
C443        C452   1.406       .  A
C448        C449   1.397       .  A
C448        H453   1.082       .  S
C449        C450   1.405       .  A
C449        H454   1.083       .  S
C450        C451   1.406       .  A
C451        C452   1.396       .  A
C451        H455   1.083       .  S
C452        H456   1.082       .  S
C457        C458   1.407   1_554  A
C457        C462   1.399       .  A
C457        H467   1.083       .  S
C458        C463   1.487       .  S
C458        C459   1.405       .  A
C459        C460   1.397       .  A
C459        H464   1.083       .  S
C460        C461   1.405   1_556  A
C460        H465   1.083       .  S
C461        C462   1.406       .  A
C462        H466   1.083       .  S
C463        C468   1.405       .  A
C463        C472   1.407   1_556  A
C468        C469   1.396       .  A
C468        H473   1.082       .  S
C469        C470   1.405   1_556  A
C469        H474   1.083       .  S
C470        C471   1.406       .  A
C471        C472   1.398       .  A
C471        H475   1.083       .  S
C472        H476   1.083       .  S
C477        C478   1.407   1_554  A
C477        C482   1.398       .  A
C477        H487   1.082       .  S
C478        C483   1.490       .  S
C478        C479   1.408       .  A
C479        C480   1.399       .  A
C479        H484   1.083       .  S
C480        C481   1.405       .  A
C480        H485   1.083       .  S
C481        C482   1.405   1_556  A
C482        H486   1.083       .  S
C483        C488   1.407       .  A
C483        C492   1.406   1_556  A
C488        C489   1.399       .  A
C488        H493   1.083       .  S
C489        C490   1.407   1_556  A
C489        H494   1.083       .  S
C490        C491   1.406       .  A
C491        C492   1.398       .  A
C491        H495   1.083       .  S
C492        H496   1.083       .  S
C497        C498   1.407       .  A
C497        C502   1.396       .  A
C497        H507   1.082       .  S
C498        C503   1.487       .  S
C498        C499   1.407   1_554  A
C499        C500   1.398       .  A
C499        H504   1.083       .  S
C500        C501   1.405   1_556  A
C500        H505   1.083       .  S
C501        C502   1.404       .  A
C502        H506   1.083       .  S
C503        C508   1.406   1_554  A
C503        C512   1.406       .  A
C508        C509   1.396       .  A
C508        H513   1.082       .  S
C509        C510   1.405   1_556  A
C509        H514   1.083       .  S
C510        C511   1.407       .  A
C511        C512   1.397       .  A
C511        H515   1.083       .  S
C512        H516   1.083       .  S
C517        C518   1.406   1_556  A
C517        C522   1.398       .  A
C517        H527   1.083       .  S
C518        C523   1.488       .  S
C518        C519   1.406       .  A
C519        C520   1.396       .  A
C519        H524   1.083       .  S
C520        C521   1.406       .  A
C520        H525   1.083       .  S
C521        C522   1.406   1_554  A
C522        H526   1.083       .  S
C523        C528   1.407       .  A
C523        C532   1.407   1_554  A
C528        C529   1.397       .  A
C528        H533   1.082       .  S
C529        C530   1.404       .  A
C529        H534   1.083       .  S
C530        C531   1.404   1_554  A
C531        C532   1.397       .  A
C531        H535   1.083       .  S
C532        H536   1.083       .  S
C537        C538   1.407   1_565  A
C537        C542   1.397       .  A
C537        H547   1.082       .  S
C538        C543   1.489       .  S
C538        C539   1.408       .  A
C539        C540   1.398       .  A
C539        H544   1.082       .  S
C540        C541   1.406       .  A
C540        H545   1.083       .  S
C541        C542   1.405   1_545  A
C542        H546   1.083       .  S
C543        C548   1.407       .  A
C543        C552   1.406   1_545  A
C548        C549   1.398       .  A
C548        H553   1.082       .  S
C549        C550   1.406       .  A
C549        H554   1.083       .  S
C550        C551   1.406   1_545  A
C551        C552   1.397       .  A
C551        H555   1.083       .  S
C552        H556   1.082       .  S
C557        C558   1.407       .  A
C557        C562   1.398       .  A
C557        H567   1.082       .  S
C558        C563   1.489       .  S
C558        C559   1.407   1_565  A
C559        C560   1.397       .  A
C559        H564   1.082       .  S
C560        C561   1.405   1_545  A
C560        H565   1.083       .  S
C561        C562   1.406       .  A
C562        H566   1.083       .  S
C563        C568   1.408   1_565  A
C563        C572   1.406       .  A
C568        C569   1.399       .  A
C568        H573   1.083       .  S
C569        C570   1.407   1_545  A
C569        H574   1.083       .  S
C570        C571   1.405       .  A
C571        C572   1.396       .  A
C571        H575   1.083       .  S
C572        H576   1.082       .  S
C577        C578   1.406       .  A
C577        C582   1.397       .  A
C577        H587   1.083       .  S
C578        C583   1.487       .  S
C578        C579   1.406   1_545  A
C579        C580   1.397       .  A
C579        H584   1.083       .  S
C580        C581   1.406   1_565  A
C580        H585   1.083       .  S
C581        C582   1.406       .  A
C582        H586   1.083       .  S
C583        C588   1.406   1_545  A
C583        C592   1.406       .  A
C588        C589   1.398       .  A
C588        H593   1.083       .  S
C589        C590   1.406   1_565  A
C589        H594   1.083       .  S
C590        C591   1.405       .  A
C591        C592   1.397       .  A
C591        H595   1.083       .  S
C592        H596   1.083       .  S
C597        C598   1.407       .  A
C597        C602   1.399       .  A
C597        H607   1.083       .  S
C598        C603   1.489       .  S
C598        C599   1.406       .  A
C599        C600   1.396       .  A
C599        H604   1.082       .  S
C600        C601   1.406       .  A
C600        H605   1.083       .  S
C601        C602   1.407       .  A
C602        H606   1.083       .  S
C603        C608   1.408       .  A
C603        C612   1.407   1_565  A
C608        C609   1.399       .  A
C608        H613   1.083       .  S
C609        C610   1.405       .  A
C609        H614   1.083       .  S
C610        C611   1.402   1_565  A
C611        C612   1.396       .  A
C611        H615   1.083       .  S
C612        H616   1.082       .  S
C617        C618   1.406       .  A
C617        C622   1.398       .  A
C617        H627   1.083       .  S
C618        C623   1.484       .  S
C618        C619   1.406   1_655  A
C619        C620   1.398       .  A
C619        H624   1.083       .  S
C620        C621   1.403   1_455  A
C620        H625   1.083       .  S
C621        C622   1.403       .  A
C622        H626   1.083       .  S
C623        C628   1.405       .  A
C623        C632   1.405   1_655  A
C628        C629   1.397       .  A
C628        H633   1.083       .  S
C629        C630   1.406       .  A
C629        H634   1.083       .  S
C630        C631   1.407   1_655  A
C631        C632   1.397       .  A
C631        H635   1.083       .  S
C632        H636   1.083       .  S
C637        C638   1.406   1_655  A
C637        C642   1.396       .  A
C637        H647   1.083       .  S
C638        C643   1.485       .  S
C638        C639   1.406       .  A
C639        C640   1.395       .  A
C639        H644   1.082       .  S
C640        C641   1.406       .  A
C640        H645   1.083       .  S
C641        C642   1.407   1_455  A
C642        H646   1.083       .  S
C643        C648   1.407   1_455  A
C643        C652   1.408       .  A
C648        C649   1.395       .  A
C648        H653   1.082       .  S
C649        C650   1.402   1_655  A
C649        H654   1.084       .  S
C650        C651   1.402       .  A
C651        C652   1.396       .  A
C651        H655   1.083       .  S
C652        H656   1.082       .  S
C657        C658   1.406   1_455  A
C657        C662   1.395       .  A
C657        H667   1.083       .  S
C658        C663   1.484       .  S
C658        C659   1.405       .  A
C659        C660   1.395       .  A
C659        H664   1.083       .  S
C660        C661   1.406       .  A
C660        H665   1.083       .  S
C661        C662   1.405   1_655  A
C662        H666   1.083       .  S
C663        C668   1.406       .  A
C663        C672   1.406   1_655  A
C668        C669   1.397       .  A
C668        H673   1.083       .  S
C669        C670   1.404       .  A
C669        H674   1.083       .  S
C670        C671   1.404   1_655  A
C671        C672   1.396       .  A
C671        H675   1.083       .  S
C672        H676   1.083       .  S
C677        C678   1.406       .  A
C677        C682   1.398       .  A
C677        H687   1.083       .  S
C678        C683   1.488       .  S
C678        C679   1.406       .  A
C679        C680   1.399       .  A
C679        H684   1.083       .  S
C680        C681   1.408       .  A
C680        H685   1.083       .  S
C681        C682   1.407       .  A
C682        H686   1.083       .  S
C683        C688   1.407       .  A
C683        C692   1.407   1_455  A
C688        C689   1.398       .  A
C688        H693   1.083       .  S
C689        C690   1.403       .  A
C689        H694   1.083       .  S
C690        C691   1.404   1_455  A
C691        C692   1.397       .  A
C691        H695   1.083       .  S
C692        H696   1.083       .  S
