geometry optimzed in LAMMPS
_audit_creation_date              2020-11-30 
_audit_creation_method            'lammps2cif' 
_symmetry_space_group_name_H-M    'P1' 
_symmetry_Int_Tables_number       1 
_symmetry_cell_setting            triclinic 
loop_ 
_symmetry_equiv_pos_as_xyz 
  x,y,z 
_cell_length_a                    45.00302666 
_cell_length_b                    44.96117000891218 
_cell_length_c                    38.473638760228425 
_cell_angle_alpha                 90.70497956062151 
_cell_angle_beta                  88.53688911623799 
_cell_angle_gamma                 91.62950505358515 
loop_ 
_atom_site_label 
_atom_site_type_symbol 
_atom_site_fract_x 
_atom_site_fract_y 
_atom_site_fract_z 
_atom_site_charge 
N1          N  0.97564482  0.21928896  0.03186860    -0.34400
N2          N  0.96893650  0.28454235  0.02932438    -0.54900
N3          N  0.51520923  0.28958883  0.47830415    -0.34400
N4          N  0.51413283  0.22342700  0.47665862    -0.54900
C5          C  0.95328788  0.22395619  0.05511044     0.29200
C6          C  0.50440138  0.19077861  0.02259167     0.29200
C7          C  0.03024018  0.31504221  0.46571513     0.29200
C8          C  0.52620478  0.28415726  0.44590000     0.29200
C9          C  0.95546669  0.27923181  0.06045827     0.37800
C10         C  0.97337137  0.31436689  0.02763471     0.37800
C11         C  0.51260741  0.19363961  0.48040831     0.37800
C12         C  0.53288294  0.22917430  0.44969899     0.37800
C13         C  0.93864198  0.19719187  0.06254942    -0.19700
C14         C  0.48235625  0.17828469  0.04415274    -0.19700
C15         C  0.04164272  0.32821997  0.43566240    -0.19700
C16         C  0.52709482  0.31027996  0.42696467    -0.19700
C17         C  0.95020452  0.30588285  0.07786819    -0.20700
C18         C  0.96129286  0.32814595  0.05688324    -0.20700
C19         C  0.53158266  0.18026911  0.45633521    -0.20700
C20         C  0.54420646  0.20282006  0.43664280    -0.20700
C21         C  0.94917332  0.25067913  0.07408580    -0.16100
C22         C  0.49264596  0.17837006  0.50335815    -0.16100
C23         C  0.53353817  0.25609869  0.43153778    -0.16100
C24         C  0.98836280  0.32942233  0.00022890    -0.14300
H25         H  0.92050561  0.19357565  0.08117691     0.16800
H26         H  0.47516062  0.15514025  0.04542360     0.16800
H27         H  0.04026613  0.35126124  0.42819116     0.16800
H28         H  0.53467535  0.31321934  0.40026348     0.16800
H29         H  0.93982559  0.30917085  0.10322483     0.15100
H30         H  0.96133899  0.35171332  0.06299349     0.15100
H31         H  0.53476429  0.15671503  0.45213588     0.15100
H32         H  0.55869761  0.20007790  0.41400992     0.15100
H33         H  0.99268095  0.23468438  0.02649018     0.28400
H34         H  0.51382341  0.27474068  0.49877259     0.28400
N35         N  0.00767583  0.21594993  0.28548942    -0.34400
N36         N  0.98244478  0.21090910  0.21812219    -0.54900
N37         N  0.98477309  0.27581746  0.21175736    -0.34400
N38         N  0.01181878  0.28053061  0.27901381    -0.54900
C39         C  0.01048272  0.18643501  0.27973707     0.29200
C40         C  0.02399260  0.22334717  0.31335868     0.29200
C41         C  0.98096487  0.26694812  0.17840780     0.29200
C42         C  0.99599222  0.30415430  0.21113792     0.29200
C43         C  0.97999547  0.18200337  0.22705709     0.37800
C44         C  0.96772657  0.21343323  0.18835085     0.37800
C45         C  0.01581544  0.27785040  0.31347890     0.37800
C46         C  0.00623251  0.30948760  0.27365650     0.37800
C47         C  0.02869426  0.17485761  0.30442457    -0.19700
C48         C  0.03697713  0.19810482  0.32588373    -0.19700
C49         C  0.98975728  0.29003667  0.15642592    -0.19700
C50         C  0.99886953  0.31361558  0.17709993    -0.19700
C51         C  0.96326501  0.16606536  0.20306593    -0.20700
C52         C  0.95546003  0.18603622  0.17846281    -0.20700
C53         C  0.01303674  0.30530669  0.32997123    -0.20700
C54         C  0.00720521  0.32539859  0.30465774    -0.20700
C55         C  0.99549000  0.16944060  0.25428044    -0.16100
C56         C  0.02426229  0.25152891  0.32978958    -0.16100
C57         C  0.00238327  0.32190578  0.24072354    -0.16100
C58         C  0.96930590  0.23880816  0.16734498    -0.16100
H59         H  0.03475671  0.15190767  0.30729208     0.16800
H60         H  0.05054772  0.19621324  0.34842147     0.16800
H61         H  0.99007424  0.28986728  0.12834279     0.16800
H62         H  0.00710053  0.33509671  0.16808988     0.16800
H63         H  0.95818476  0.14238740  0.20263731     0.15100
H64         H  0.94329434  0.18077015  0.15515620     0.15100
H65         H  0.01538639  0.31049973  0.35729099     0.15100
H66         H  0.00408841  0.34899304  0.30860278     0.15100
H67         H  0.99245106  0.22958327  0.27424799     0.28400
H68         H  0.97754616  0.26414700  0.23372776     0.28400
O69         O  0.48155929  0.01856744  0.41714137    -0.76300
C70         C  0.41846773  0.99858656  0.50788028     0.84800
O71         O  0.01578878  0.07207785  0.02558093    -0.77400
O72         O  0.48765406  0.47863710  0.08866512    -0.78900
O73         O  0.02718572  0.43715547  0.47308182    -0.78700
O74         O  0.02522603  0.48664668  0.40709406    -0.77300
Zn75       Zn  0.47452516  0.02689471  0.47179671     1.55700
O76         O  0.49689002  0.42943350  0.01994200    -0.78700
Cd77       Cd  0.03106304  0.48253057  0.46251855     1.59700
Cd78       Cd  0.02717270  0.02842831  0.03692835     1.59600
O79         O  0.07328280  0.49878549  0.47605515    -0.78700
O80         O  0.00042847  0.00219960  0.50293630    -1.89200
Cd81       Cd  0.48046507  0.47118687  0.03342243     1.59900
O82         O  0.07274926  0.02441661  0.02540407    -0.78600
O83         O  0.43471524  0.47094061  0.02325512    -0.77300
C84         C  0.01054073  0.08389946  0.50124178     0.85200
C85         C  0.99994366  0.99968186  0.39849916     0.84900
O86         O  0.43149889  0.01540516  0.48529074    -0.76200
C87         C  0.98939495  0.42011325  0.99659935     0.85700
O88         O  0.48095776  0.07140612  0.48166420    -0.76300
C89         C  0.08785103  0.01030559  0.00227573     0.85800
C90         C  0.00406244  0.00004946  0.10861875     0.86200
O91         O  0.01957732  0.02003684  0.09212190    -0.78800
O92         O  0.48570088  0.01641247  0.16770274    -0.76300
C93         C  0.41961294  0.99690601  0.25506222     0.84800
O94         O  0.01793763  0.06693013  0.27647979    -0.77400
O95         O  0.48534512  0.48458414  0.34001043    -0.78900
O96         O  0.02246905  0.42858748  0.21762177    -0.78700
O97         O  0.02363166  0.48442855  0.15558504    -0.77300
Zn98       Zn  0.47743053  0.02310983  0.22195020     1.55700
O99         O  0.48403238  0.43157063  0.27366789    -0.78700
Cd100      Cd  0.03036707  0.47442309  0.20984186     1.59700
Cd101      Cd  0.02581493  0.02281965  0.28673745     1.59600
O102        O  0.07467155  0.48525102  0.22162131    -0.78700
O103        O  0.00166328  0.99750930  0.25309081    -1.89200
Cd104      Cd  0.47799690  0.47654320  0.28509436     1.59900
O105        O  0.07001830  0.01448908  0.27552256    -0.78600
O106        O  0.43422349  0.48712539  0.27582361    -0.77300
C107        C  0.00129748  0.07917709  0.25482498     0.85200
C108        C  0.00385181  0.99900667  0.14835494     0.84900
O109        O  0.43403279  0.01264701  0.23262916    -0.76200
C110        C  0.00755529  0.41327932  0.24026030     0.85700
O111        O  0.48352727  0.06682784  0.23402309    -0.76300
C112        C  0.08710191  0.50243017  0.24403749     0.85800
C113        C  0.00536414  0.49780853  0.35028950     0.86200
O114        O  0.01751898  0.01675354  0.34161431    -0.78800
N115        N  0.28679460  0.00775787  0.04143118    -0.34400
N116        N  0.22166076  0.00698779  0.03917945    -0.54900
N117        N  0.22006438  0.99437004  0.46614385    -0.34400
N118        N  0.28503267  0.99868435  0.46941039    -0.54900
C119        C  0.27960336  0.99252759  0.07058883     0.29200
C120        C  0.31613747  0.00409664  0.03459194     0.29200
C121        C  0.19057620  0.99721469  0.47299585     0.29200
C122        C  0.22682863  0.00969154  0.43691833     0.29200
C123        C  0.22533266  0.00284394  0.07347666     0.37800
C124        C  0.19278856  0.01367148  0.03547551     0.37800
C125        C  0.31432255  0.99444130  0.47387499     0.37800
C126        C  0.28176970  0.00306236  0.43507236     0.37800
C127        C  0.30483323  0.97936874  0.08271308    -0.19700
C128        C  0.32783819  0.98654812  0.05990884    -0.19700
C129        C  0.17845302  0.01438809  0.44761657    -0.19700
C130        C  0.20121186  0.02194812  0.42471113    -0.19700
C131        C  0.19856300  0.00667857  0.09153885    -0.20700
C132        C  0.17794710  0.01347683  0.06742487    -0.20700
C133        C  0.32986424  0.99685204  0.44246690    -0.20700
C134        C  0.30921421  0.00202788  0.41780525    -0.20700
C135        C  0.25177314  0.99326350  0.08837366    -0.16100
C136        C  0.33276837  0.01726254  0.00695565    -0.16100
C137        C  0.25483253  0.01016280  0.41940080    -0.16100
C138        C  0.17918867  0.01664046  0.00320409    -0.16100
H139        H  0.30688111  0.96640841  0.10586796     0.16800
H140        H  0.35065539  0.97994272  0.06204866     0.16800
H141        H  0.15544714  0.02029610  0.44529266     0.16800
H142        H  0.19875070  0.03479472  0.40163984     0.16800
H143        H  0.19410599  0.00425518  0.11912737     0.15100
H144        H  0.15459168  0.01716900  0.07269565     0.15100
H145        H  0.35357029  0.99504187  0.43781036     0.15100
H146        H  0.31402052  0.00516931  0.39039186     0.15100
H147        H  0.27326793  0.02283765  0.02970206     0.28400
H148        H  0.23416019  0.97987051  0.47785040     0.28400
N149        N  0.28426660  0.02092726  0.28046262    -0.34400
N150        N  0.21840498  0.01878560  0.28240407    -0.54900
N151        N  0.21836435  0.97616870  0.22550871    -0.34400
N152        N  0.28423931  0.97785878  0.22434658    -0.54900
C153        C  0.27895441  0.03485227  0.31121922     0.29200
C154        C  0.31380046  0.01558997  0.27851056     0.29200
C155        C  0.18905537  0.98235668  0.22710943     0.29200
C156        C  0.22398045  0.96455795  0.19352812     0.29200
C157        C  0.22306810  0.03543038  0.31124416     0.37800
C158        C  0.18864686  0.01496802  0.28002208     0.37800
C159        C  0.31399732  0.98027131  0.22780573     0.37800
C160        C  0.27948287  0.96118030  0.19558528     0.37800
C161        C  0.30565645  0.04051596  0.32763681    -0.19700
C162        C  0.32761982  0.02852158  0.30698086    -0.19700
C163        C  0.17557616  0.97243558  0.19693404    -0.19700
C164        C  0.19763249  0.96143121  0.17567677    -0.19700
C165        C  0.19609399  0.04327078  0.32642106    -0.20700
C166        C  0.17426119  0.03035081  0.30663809    -0.20700
C167        C  0.32822034  0.96382829  0.20195892    -0.20700
C168        C  0.30633306  0.95197118  0.18136781    -0.20700
C169        C  0.25075148  0.03954274  0.32726219    -0.16100
C170        C  0.32859043  0.99785321  0.25317395    -0.16100
C171        C  0.25230003  0.95914428  0.17826680    -0.16100
C172        C  0.17420332  0.99810041  0.25401208    -0.16100
H173        H  0.30881919  0.05114840  0.35272140     0.16800
H174        H  0.35090577  0.02799260  0.31325004     0.16800
H175        H  0.15252532  0.97435512  0.19012331     0.16800
H176        H  0.19477214  0.95294590  0.14948289     0.16800
H177        H  0.19253674  0.05670012  0.34955447     0.15100
H178        H  0.15055638  0.03175225  0.31161524     0.15100
H179        H  0.35190260  0.96154347  0.19758170     0.15100
H180        H  0.30977879  0.93882257  0.15795557     0.15100
H181        H  0.26851750  0.01523994  0.26224468     0.28400
H182        H  0.23355439  0.97938062  0.24510924     0.28400
C183        C  0.25576432  0.01431596  0.38146801    -0.14200
C184        C  0.24988168  0.03988563  0.36570911    -0.29400
H185        H  0.25793997  0.45432365  0.38122081     0.14800
H186        H  0.24303207  0.05945163  0.38030851     0.15400
C187        C  0.25439739  0.96079197  0.13996425    -0.14200
C188        C  0.25077456  0.98759643  0.12596254    -0.29400
H189        H  0.27809753  0.49348509  0.11769567     0.14800
H190        H  0.24533945  0.00636567  0.14285941     0.15400
C191        C  0.11533837  0.99851330  0.25312882    -0.11100
C192        C  0.14206409  0.99838637  0.25358253    -0.12600
C193        C  0.38765067  0.99647612  0.25466252    -0.11100
C194        C  0.36083600  0.99688024  0.25407090    -0.12600
C195        C  0.11990221  0.01333958  0.00202826    -0.11100
C196        C  0.14681631  0.01513828  0.00211730    -0.12600
C197        C  0.36491946  0.01540809  0.00667636    -0.11100
C198        C  0.39157654  0.01305850  0.00617213    -0.12600
C199        C  0.00545516  0.35416772  0.23746245    -0.11100
C200        C  0.00725238  0.38113998  0.23760077    -0.12600
C201        C  0.99960914  0.11085621  0.25518633    -0.11100
C202        C  0.99753026  0.13745677  0.25506453    -0.12600
C203        C  0.05543738  0.24856324  0.38198467    -0.14200
C204        C  0.02922516  0.25310112  0.36734979    -0.29400
H205        H  0.07489274  0.24207219  0.36675996     0.14800
H206        H  0.48550347  0.25996777  0.39647743     0.15400
C207        C  0.96443202  0.23374060  0.12999953    -0.14200
C208        C  0.94452420  0.24858177  0.11220189    -0.29400
H209        H  0.97996543  0.21929883  0.11639855     0.14800
H210        H  0.45888114  0.26341270  0.12104302     0.15400
C211        C  0.98659173  0.38832408  0.99810702    -0.11100
C212        C  0.98657751  0.36154435  0.99918203    -0.12600
C213        C  0.01537093  0.14284550  0.49810317    -0.11100
C214        C  0.01370052  0.11593302  0.49959076    -0.12600
N215        N  0.99750566  0.22063548  0.52595861    -0.34400
N216        N  0.99322894  0.28623436  0.52222595    -0.54900
N217        N  0.54699833  0.28501760  0.96732665    -0.34400
N218        N  0.54183796  0.21833755  0.96708417    -0.54900
C219        C  0.97683868  0.22630337  0.55087260     0.29200
C220        C  0.47290155  0.19270032  0.52712559     0.29200
C221        C  0.00523971  0.31516427  0.97381022     0.29200
C222        C  0.55670481  0.27876746  0.93462838     0.29200
C223        C  0.98004070  0.28177088  0.55372649     0.37800
C224        C  0.99813269  0.31596169  0.51954508     0.37800
C225        C  0.53977064  0.18858299  0.97208557     0.37800
C226        C  0.55733693  0.22269483  0.93708157     0.37800
C227        C  0.96285911  0.19991447  0.56126997    -0.19700
C228        C  0.45453734  0.17792113  0.55115546    -0.19700
C229        C  0.01626469  0.32908281  0.94404107    -0.19700
C230        C  0.55998042  0.30505480  0.91611033    -0.19700
C231        C  0.97515895  0.30884223  0.57028049    -0.20700
C232        C  0.98624133  0.33050731  0.54841264    -0.20700
C233        C  0.55452695  0.17387402  0.94523677    -0.20700
C234        C  0.56529285  0.19547672  0.92282635    -0.20700
C235        C  0.97423954  0.25366984  0.56882582    -0.16100
C236        C  0.52212673  0.17460242  0.99849372    -0.16100
C237        C  0.55979518  0.25004988  0.91940677    -0.16100
C238        C  0.01403426  0.33025285  0.49207808    -0.14300
H239        H  0.94621570  0.19709207  0.58186850     0.16800
H240        H  0.45170490  0.15413216  0.55448225     0.16800
H241        H  0.01376728  0.35202250  0.93669337     0.16800
H242        H  0.56724634  0.30753519  0.88923421     0.16800
H243        H  0.96510193  0.31272557  0.59570064     0.15100
H244        H  0.98665987  0.35418677  0.55387450     0.15100
H245        H  0.55605288  0.15008555  0.94127485     0.15100
H246        H  0.57704192  0.19161030  0.89838158     0.15100
H247        H  0.01405889  0.23575847  0.51828277     0.28400
H248        H  0.54411227  0.26984693  0.98722024     0.28400
N249        N  0.02200759  0.21824405  0.78423370    -0.34400
N250        N  0.01049562  0.21248265  0.71205731    -0.54900
N251        N  0.99928564  0.27702329  0.71009082    -0.34400
N252        N  0.01356803  0.28280257  0.78200718    -0.54900
C253        C  0.03020397  0.18980323  0.77872228     0.29200
C254        C  0.03160872  0.22676517  0.81581988     0.29200
C255        C  0.00196289  0.26976859  0.67603514     0.29200
C256        C  0.00358929  0.30694238  0.71294290     0.29200
C257        C  0.01020098  0.18322615  0.71981266     0.37800
C258        C  0.99883034  0.21439841  0.68030894     0.37800
C259        C  0.01246882  0.27841197  0.81666223     0.37800
C260        C  0.00279537  0.31018294  0.77690599     0.37800
C261        C  0.04557877  0.18017471  0.80697778    -0.19700
C262        C  0.04636299  0.20344623  0.83047610    -0.19700
C263        C  0.00824827  0.29535799  0.65701813    -0.19700
C264        C  0.00895528  0.31885938  0.68029786    -0.19700
C265        C  0.99873007  0.16640498  0.69262123    -0.20700
C266        C  0.99152224  0.18618950  0.66751528    -0.20700
C267        C  0.00135427  0.30337166  0.83359674    -0.20700
C268        C  0.99550590  0.32359389  0.80839507    -0.20700
C269        C  0.02139752  0.17160510  0.75051871    -0.16100
C270        C  0.02317069  0.25310462  0.83337666    -0.16100
C271        C  0.00108295  0.32363218  0.74417645    -0.16100
C272        C  0.99693501  0.24097852  0.66158935    -0.16100
H273        H  0.05436338  0.15832516  0.81081280     0.16800
H274        H  0.05584355  0.20259162  0.85587864     0.16800
H275        H  0.01192213  0.29699947  0.62921597     0.16800
H276        H  0.01298842  0.34203030  0.67393334     0.16800
H277        H  0.99601016  0.14243646  0.69095077     0.15100
H278        H  0.98217459  0.18045017  0.64258294     0.15100
H279        H  0.99795701  0.30684979  0.86124272     0.15100
H280        H  0.98672307  0.34553214  0.81271836     0.15100
H281        H  0.00663457  0.22955674  0.77014094     0.28400
H282        H  0.99151565  0.26274376  0.72957816     0.28400
O283        O  0.49103926  0.01936194  0.91793027    -0.76300
C284        C  0.42317429  0.00937790  0.00613838     0.84800
O285        O  0.02530550  0.07000326  0.52363050    -0.77400
O286        O  0.47998164  0.48974232  0.58943574    -0.78900
O287        O  0.00699441  0.43136945  0.97346520    -0.78700
O288        O  0.01370886  0.48026031  0.90587931    -0.77300
Zn289      Zn  0.48385304  0.02729966  0.97220882     1.55700
O290        O  0.47781737  0.43865433  0.52427912    -0.78700
Cd291      Cd  0.02139518  0.47402023  0.96047512     1.59700
Cd292      Cd  0.02848759  0.02474634  0.53548933     1.59600
O293        O  0.06723351  0.47688595  0.96841298    -0.78700
O294        O  0.00439974  0.00116665  0.00338295    -1.89200
Cd295      Cd  0.47307587  0.48359519  0.53464200     1.59900
O296        O  0.07182268  0.01123030  0.52331257    -0.78600
O297        O  0.42992478  0.49547926  0.52428754    -0.77300
C298        C  0.99880898  0.08334728  0.00335753     0.85200
C299        C  0.00468672  0.00004678  0.89904730     0.84900
O300        O  0.43948203  0.02339492  0.98373087    -0.76200
C301        C  0.00990494  0.42126501  0.49262647     0.85700
O302        O  0.49760879  0.06997043  0.98256953    -0.76300
C303        C  0.08331575  0.99334746  0.50097644     0.85800
C304        C  0.00199100  0.00163530  0.60848708     0.86200
O305        O  0.02071506  0.01804363  0.59102354    -0.78800
O306        O  0.48450711  0.01717877  0.66832377    -0.76300
C307        C  0.42241750  0.99030923  0.75678956     0.84800
O308        O  0.03190907  0.06572486  0.77712517    -0.77400
O309        O  0.47864311  0.48558996  0.84001623    -0.78900
O310        O  0.01093293  0.42877275  0.71970509    -0.78700
O311        O  0.01249919  0.48119723  0.65456248    -0.77300
Zn312      Zn  0.47716182  0.02214963  0.72306516     1.55700
O313        O  0.47759269  0.43169026  0.77384953    -0.78700
Cd314      Cd  0.02050635  0.47346748  0.70884138     1.59700
Cd315      Cd  0.03341885  0.02015511  0.78652240     1.59600
O316        O  0.06572306  0.48153108  0.71708662    -0.78700
O317        O  0.00451223  0.99981270  0.75325700    -1.89200
Cd318      Cd  0.47124981  0.47697659  0.78499553     1.59900
O319        O  0.07592274  0.00616813  0.77277545    -0.78600
O320        O  0.42735325  0.48602829  0.77362506    -0.77300
C321        C  0.01755933  0.08083647  0.75555040     0.85200
C322        C  0.00307371  0.00071827  0.64834996     0.84900
O323        O  0.43499610  0.00776208  0.73464390    -0.76200
C324        C  0.99537546  0.41500182  0.74299441     0.85700
O325        O  0.48066981  0.06596704  0.73562974    -0.76300
C326        C  0.08062594  0.49752578  0.73852691     0.85800
C327        C  0.99924588  0.49973943  0.84996726     0.86200
O328        O  0.02578884  0.01288073  0.84176484    -0.78800
N329        N  0.28206765  0.97172351  0.53749706    -0.34400
N330        N  0.21661167  0.97001659  0.53446299    -0.54900
N331        N  0.22479078  0.02749231  0.96857777    -0.34400
N332        N  0.29021000  0.02680730  0.97136539    -0.54900
C333        C  0.27418780  0.96741913  0.57127995     0.29200
C334        C  0.31040505  0.98292942  0.53661032     0.29200
C335        C  0.19587310  0.01839809  0.97175029     0.29200
C336        C  0.23267460  0.02513762  0.93452208     0.29200
C337        C  0.22003399  0.95519272  0.56425931     0.37800
C338        C  0.18730695  0.96814149  0.52741445     0.37800
C339        C  0.31942650  0.02990839  0.97818257     0.37800
C340        C  0.28688231  0.03720756  0.93911484     0.37800
C341        C  0.29804043  0.97561205  0.59195521    -0.19700
C342        C  0.32091400  0.98510176  0.57006340    -0.19700
C343        C  0.18499363  0.01097439  0.93938820    -0.19700
C344        C  0.20832634  0.01472136  0.91595609    -0.19700
C345        C  0.19275988  0.94344323  0.57598306    -0.20700
C346        C  0.17201721  0.95175264  0.55268303    -0.20700
C347        C  0.33471805  0.04300122  0.95037635    -0.20700
C348        C  0.31407021  0.04747449  0.92547604    -0.20700
C349        C  0.24608517  0.95642113  0.58397021    -0.16100
C350        C  0.32732234  0.99016981  0.50628310    -0.16100
C351        C  0.26109764  0.03239873  0.91972767    -0.16100
C352        C  0.17397604  0.98329033  0.50022831    -0.16100
H353        H  0.29893894  0.97534858  0.61999567     0.16800
H354        H  0.34264308  0.99316396  0.57793996     0.16800
H355        H  0.16284845  0.00272285  0.93344768     0.16800
H356        H  0.20739310  0.00979285  0.88844329     0.16800
H357        H  0.18811005  0.93126588  0.59969936     0.15100
H358        H  0.14832118  0.94702311  0.55465385     0.15100
H359        H  0.35843205  0.04736352  0.94757775     0.15100
H360        H  0.31872708  0.05597132  0.89965725     0.15100
H361        H  0.26960961  0.96509939  0.51621120     0.28400
H362        H  0.23776163  0.03675378  0.98819254     0.28400
N363        N  0.28578101  0.00307334  0.78294584    -0.34400
N364        N  0.22092275  0.00707206  0.77829660    -0.54900
N365        N  0.22358670  0.96601321  0.72067206    -0.34400
N366        N  0.28835088  0.96151286  0.72528762    -0.54900
C367        C  0.28027290  0.02496493  0.80644350     0.29200
C368        C  0.31570702  0.00249782  0.77780031     0.29200
C369        C  0.19373282  0.96540723  0.72671710     0.29200
C370        C  0.22943079  0.94457859  0.69677311     0.29200
C371        C  0.22460275  0.02463232  0.80659345     0.37800
C372        C  0.19134761  0.00430563  0.77341955     0.37800
C373        C  0.31792341  0.96430805  0.73009658     0.37800
C374        C  0.28477367  0.94593352  0.69543913     0.37800
C375        C  0.30688800  0.03844546  0.81632433    -0.19700
C376        C  0.32920295  0.02428371  0.79837545    -0.19700
C377        C  0.18064997  0.94312350  0.70650923    -0.19700
C378        C  0.20317325  0.93014168  0.68744465    -0.19700
C379        C  0.19713797  0.03358355  0.81947180    -0.20700
C380        C  0.17611936  0.02095123  0.79825274    -0.20700
C381        C  0.33320948  0.94916670  0.70395764    -0.20700
C382        C  0.31223216  0.93791162  0.68169858    -0.20700
C383        C  0.25222225  0.03163340  0.82177171    -0.16100
C384        C  0.33145894  0.98299996  0.75525692    -0.16100
C385        C  0.25719146  0.94035075  0.67962303    -0.16100
C386        C  0.17775878  0.98502861  0.74887402    -0.16100
H387        H  0.30988163  0.05652148  0.83484868     0.16800
H388        H  0.35273364  0.02949600  0.80033055     0.16800
H389        H  0.15723012  0.93718309  0.70513675     0.16800
H390        H  0.20056730  0.91249797  0.66827281     0.16800
H391        H  0.19244787  0.04752126  0.84193057     0.15100
H392        H  0.15229821  0.02287362  0.80162640     0.15100
H393        H  0.35704909  0.94771352  0.70024984     0.15100
H394        H  0.31690158  0.92551727  0.65802309     0.15100
H395        H  0.27022614  0.98742329  0.77429837     0.28400
H396        H  0.23870532  0.98255263  0.72823046     0.28400
C397        C  0.26591322  0.02811343  0.88204589    -0.14200
C398        C  0.25168743  0.04320209  0.85804106    -0.29400
H399        H  0.26960453  0.43002921  0.86201968     0.14800
H400        H  0.23650552  0.06044598  0.86614318     0.15400
C401        C  0.25732890  0.93490888  0.64144195    -0.14200
C402        C  0.24150054  0.95287320  0.62186343    -0.29400
H403        H  0.26111046  0.51901460  0.60500367     0.14800
H404        H  0.22568353  0.96775279  0.63422555     0.15400
C405        C  0.11856232  0.98590385  0.74738306    -0.11100
C406        C  0.14539589  0.98455283  0.74749872    -0.12600
C407        C  0.39057293  0.98661956  0.75657103    -0.11100
C408        C  0.36377259  0.98441413  0.75594443    -0.12600
C409        C  0.11506453  0.98925383  0.50094290    -0.11100
C410        C  0.14170232  0.98590892  0.50089076    -0.12600
C411        C  0.35952535  0.99379772  0.50846475    -0.11100
C412        C  0.38638733  0.99635421  0.50874700    -0.12600
C413        C  0.99761027  0.35585026  0.74280511    -0.11100
C414        C  0.99568233  0.38275186  0.74283837    -0.12600
C415        C  0.02154887  0.11268666  0.75538691    -0.11100
C416        C  0.02276463  0.13950906  0.75370790    -0.12600
C417        C  0.04427735  0.25192024  0.89232105    -0.14200
C418        C  0.02085114  0.25272709  0.87156785    -0.29400
H419        H  0.06687532  0.25036429  0.88202535     0.14800
H420        H  0.51096232  0.25920530  0.88911436     0.15400
C421        C  0.99277402  0.23797457  0.62388053    -0.14200
C422        C  0.97189764  0.25251735  0.60714487    -0.29400
H423        H  0.00821420  0.22401022  0.60940708     0.14800
H424        H  0.42487220  0.26704017  0.62775782     0.15400
C425        C  0.01235583  0.38941266  0.49123706    -0.11100
C426        C  0.01352232  0.36257879  0.49091742    -0.12600
C427        C  0.99648213  0.14255819  0.00195133    -0.11100
C428        C  0.99706134  0.11553064  0.00221833    -0.12600
N429        N  0.03796630  0.71870520  0.03818757    -0.34400
N430        N  0.03560002  0.78462215  0.03797425    -0.54900
N431        N  0.50206889  0.78746620  0.46688053    -0.34400
N432        N  0.50023868  0.72214226  0.46641971    -0.54900
C433        C  0.03664811  0.72536539  0.07255558     0.29200
C434        C  0.48791950  0.68740407  0.03376609     0.29200
C435        C  0.97041291  0.81414416  0.47234119     0.29200
C436        C  0.48505434  0.78099846  0.43937703     0.29200
C437        C  0.04721581  0.78016217  0.06931119     0.37800
C438        C  0.03810223  0.81420126  0.03210110     0.37800
C439        C  0.50834782  0.69349375  0.46831150     0.37800
C440        C  0.49612752  0.72747698  0.43245520     0.37800
C441        C  0.02743721  0.70015410  0.09086264    -0.19700
C442        C  0.50405915  0.67427316  0.05936763    -0.19700
C443        C  0.95409072  0.82794722  0.44741495    -0.19700
C444        C  0.46955882  0.80586685  0.43040167    -0.19700
C445        C  0.05744976  0.80702290  0.08330260    -0.20700
C446        C  0.05168754  0.82861864  0.05969423    -0.20700
C447        C  0.50881269  0.68035096  0.43557678    -0.20700
C448        C  0.50145799  0.70206177  0.41274261    -0.20700
C449        C  0.04391911  0.75342161  0.08785289    -0.16100
C450        C  0.51336492  0.67882221  0.49962982    -0.16100
C451        C  0.48661254  0.75472761  0.41939050    -0.16100
C452        C  0.02555847  0.82844096  0.00378318    -0.14300
H453        H  0.02392430  0.69820682  0.11865251     0.16800
H454        H  0.50976774  0.65112817  0.06115362     0.16800
H455        H  0.94805025  0.85106384  0.44683630     0.16800
H456        H  0.45456624  0.80783028  0.40911357     0.16800
H457        H  0.06715320  0.81079830  0.10839720     0.15100
H458        H  0.05610553  0.85226496  0.06295121     0.15100
H459        H  0.51417083  0.65764041  0.42886961     0.15100
H460        H  0.50029302  0.69942156  0.38487394     0.15100
H461        H  0.04651577  0.73261429  0.01871938     0.28400
H462        H  0.51887152  0.77420067  0.47552251     0.28400
N463        N  0.97162684  0.71224765  0.27034992    -0.34400
N464        N  0.02265327  0.71287165  0.22274705    -0.54900
N465        N  0.02821989  0.77854436  0.22934433    -0.34400
N466        N  0.97759801  0.77804766  0.27647612    -0.54900
C467        C  0.97617154  0.68260180  0.26778632     0.29200
C468        C  0.95536444  0.71682724  0.29991403     0.29200
C469        C  0.04673298  0.77399677  0.20169848     0.29200
C470        C  0.02462508  0.80836027  0.23249072     0.29200
C471        C  0.01701757  0.68318562  0.22256301     0.37800
C472        C  0.04412416  0.71799452  0.19825664     0.37800
C473        C  0.95557706  0.77270006  0.30013530     0.37800
C474        C  0.98163711  0.80790643  0.27497903     0.37800
C475        C  0.96056183  0.66803213  0.29433776    -0.19700
C476        C  0.94778025  0.68956874  0.31480549    -0.19700
C477        C  0.05690216  0.80126144  0.18896924    -0.19700
C478        C  0.04307355  0.82290284  0.20837513    -0.19700
C479        C  0.03580190  0.66925444  0.19878717    -0.20700
C480        C  0.05283237  0.69128925  0.18327913    -0.20700
C481        C  0.94484268  0.79939197  0.31298711    -0.20700
C482        C  0.96125468  0.82170347  0.29696576    -0.20700
C483        C  0.99552904  0.66826713  0.24381730    -0.16100
C484        C  0.94924069  0.74476253  0.31556332    -0.16100
C485        C  0.00377358  0.82291629  0.25460678    -0.16100
C486        C  0.05269209  0.74626195  0.18524340    -0.16100
H487        H  0.95980383  0.64442964  0.29962793     0.16800
H488        H  0.93503046  0.68540707  0.33853339     0.16800
H489        H  0.07228273  0.80513639  0.16738152     0.16800
H490        H  0.04535801  0.84661321  0.20408205     0.16800
H491        H  0.03669665  0.64573533  0.19264232     0.15100
H492        H  0.06913673  0.68803975  0.16252241     0.15100
H493        H  0.92787472  0.80234893  0.33307951     0.15100
H494        H  0.95908421  0.84530896  0.30185835     0.15100
H495        H  0.97905947  0.72839439  0.25293411     0.28400
H496        H  0.01857241  0.76208623  0.24477630     0.28400
O497        O  0.48733616  0.52196882  0.41325239    -0.76300
C498        C  0.41918418  0.51259021  0.50184408     0.84800
O499        O  0.02823208  0.56712927  0.02058231    -0.77400
O500        O  0.48410600  0.98644183  0.09374199    -0.78900
O501        O  0.00874675  0.93154269  0.48049721    -0.78700
O502        O  0.01567250  0.98123532  0.41458888    -0.77300
Zn503      Zn  0.47987709  0.53115282  0.46771982     1.55700
O504        O  0.47820189  0.93311997  0.02868273    -0.78700
Cd505      Cd  0.02244422  0.97483384  0.46914658     1.59700
Cd506      Cd  0.03029103  0.52140025  0.02854607     1.59600
O507        O  0.06784927  0.97869369  0.47886646    -0.78700
O508        O  0.00136060  0.50352157  0.49431589    -1.89200
Cd509      Cd  0.47627638  0.97887789  0.03908228     1.59900
O510        O  0.07290349  0.50790232  0.01402021    -0.78600
O511        O  0.43366822  0.99214872  0.02862897    -0.77300
C512        C  0.99349652  0.58506133  0.49130801     0.85200
C513        C  0.00520268  0.49946199  0.39000452     0.84900
O514        O  0.43540201  0.52673640  0.47945043    -0.76200
C515        C  0.01481895  0.91879525  0.00367139     0.85700
O516        O  0.49264569  0.57410257  0.47831765    -0.76300
C517        C  0.08353495  0.49075324  0.99037243     0.85800
C518        C  0.00213643  0.49943833  0.10092587     0.86200
O519        O  0.02351535  0.51233337  0.08363067    -0.78800
O520        O  0.48701224  0.51741399  0.16384984    -0.76300
C521        C  0.42247428  0.50433193  0.25421129     0.84800
O522        O  0.01638293  0.56653847  0.26585974    -0.77400
O523        O  0.48303231  0.98419914  0.34336261    -0.78900
O524        O  0.01781498  0.92813487  0.23013780    -0.78700
O525        O  0.02001287  0.98056211  0.16398670    -0.77300
Zn526      Zn  0.48125664  0.52482193  0.21835140     1.55700
O527        O  0.48601573  0.93112851  0.27679409    -0.78700
Cd528      Cd  0.02616110  0.97299659  0.21889613     1.59700
Cd529      Cd  0.02732177  0.52333574  0.27739257     1.59600
O530        O  0.07027305  0.98245957  0.23015856    -0.78700
O531        O  0.00378780  0.49608790  0.24495871    -1.89200
Cd532      Cd  0.47695784  0.97542652  0.28838644     1.59900
O533        O  0.07235946  0.51798074  0.26606721    -0.78600
O534        O  0.43239152  0.98181448  0.27795637    -0.77300
C535        C  0.99844725  0.57743493  0.24457013     0.85200
C536        C  0.00278000  0.49799234  0.14069633     0.84900
O537        O  0.43765460  0.51923975  0.23163473    -0.76200
C538        C  0.00253970  0.91430183  0.25363151     0.85700
O539        O  0.49288057  0.56762677  0.22838910    -0.76300
C540        C  0.08356978  0.99852334  0.25287880     0.85800
C541        C  0.99991260  0.99915516  0.35878099     0.86200
O542        O  0.02028301  0.51728034  0.33251584    -0.78800
N543        N  0.28300205  0.49401609  0.02664106    -0.34400
N544        N  0.21790253  0.50086821  0.02238245    -0.54900
N545        N  0.21720848  0.49967519  0.47715245    -0.34400
N546        N  0.28326648  0.49899090  0.47563836    -0.54900
C547        C  0.27762298  0.51448464  0.05184619     0.29200
C548        C  0.31294053  0.49384004  0.02126328     0.29200
C549        C  0.18800889  0.50638247  0.47803270     0.29200
C550        C  0.22214146  0.48391457  0.44757614     0.29200
C551        C  0.22195370  0.51414624  0.05348260     0.37800
C552        C  0.18826283  0.49893084  0.01782798     0.37800
C553        C  0.31314408  0.50120467  0.47800560     0.37800
C554        C  0.27762659  0.47971148  0.44938614     0.37800
C555        C  0.30423570  0.52743425  0.06251748    -0.19700
C556        C  0.32650065  0.51430485  0.04347546    -0.19700
C557        C  0.17393716  0.49273843  0.45015579    -0.19700
C558        C  0.19550007  0.47879830  0.43081970    -0.19700
C559        C  0.19468059  0.52100503  0.06878406    -0.20700
C560        C  0.17334625  0.51167830  0.04596418    -0.20700
C561        C  0.32653182  0.48213142  0.45417092    -0.20700
C562        C  0.30400308  0.46861709  0.43596466    -0.20700
C563        C  0.24982423  0.51976734  0.06843356    -0.16100
C564        C  0.32863873  0.47632049  0.99656180    -0.16100
C565        C  0.25014023  0.47657617  0.43286467    -0.16100
C566        C  0.17442383  0.48386675  0.98996593    -0.16100
H567        H  0.30722753  0.54453879  0.08223292     0.16800
H568        H  0.35001195  0.51957758  0.04551038     0.16800
H569        H  0.15080507  0.49393644  0.44340055     0.16800
H570        H  0.19215589  0.46705336  0.40643339     0.16800
H571        H  0.19037164  0.53147916  0.09379029     0.15100
H572        H  0.14956426  0.51311976  0.05024670     0.15100
H573        H  0.35006534  0.47891540  0.44965606     0.15100
H574        H  0.30671160  0.45302680  0.41455237     0.15100
H575        H  0.26735709  0.47885161  0.01699073     0.28400
H576        H  0.23286466  0.50523723  0.49558640     0.28400
N577        N  0.28565764  0.50817401  0.29040503    -0.34400
N578        N  0.22028427  0.50632874  0.28724890    -0.54900
N579        N  0.22446130  0.51402575  0.21381292    -0.34400
N580        N  0.28997864  0.51427624  0.21715297    -0.54900
C581        C  0.27833544  0.49935271  0.32294132     0.29200
C582        C  0.31520125  0.50412482  0.28544390     0.29200
C583        C  0.19554224  0.50522517  0.21778950     0.29200
C584        C  0.23266508  0.50792390  0.18058226     0.29200
C585        C  0.22355503  0.50808440  0.32194779     0.37800
C586        C  0.19125892  0.51094605  0.28142978     0.37800
C587        C  0.31902717  0.51896903  0.22384743     0.37800
C588        C  0.28677967  0.52090983  0.18354043     0.37800
C589        C  0.30376219  0.49035656  0.33913688    -0.19700
C590        C  0.32692990  0.49311056  0.31541469    -0.19700
C591        C  0.18512375  0.49383356  0.18665815    -0.19700
C592        C  0.20865109  0.49526380  0.16320723    -0.19700
C593        C  0.19634086  0.51367364  0.33828049    -0.20700
C594        C  0.17588160  0.51546213  0.31256033    -0.20700
C595        C  0.33441277  0.52885654  0.19437230    -0.20700
C596        C  0.31389791  0.53010476  0.16873139    -0.20700
C597        C  0.24997363  0.50189012  0.33927358    -0.16100
C598        C  0.33205419  0.51155244  0.25523448    -0.16100
C599        C  0.26077951  0.51481304  0.16508158    -0.16100
C600        C  0.17825331  0.50805878  0.24861279    -0.16100
H601        H  0.30587115  0.48328842  0.36555981     0.16800
H602        H  0.34989443  0.48819721  0.32002965     0.16800
H603        H  0.16300441  0.48505774  0.18151049     0.16800
H604        H  0.20806935  0.48780159  0.13638213     0.16800
H605        H  0.19150772  0.51557640  0.36589671     0.15100
H606        H  0.15231619  0.51893882  0.31637787     0.15100
H607        H  0.35801170  0.53382764  0.19142004     0.15100
H608        H  0.31859989  0.53612750  0.14200041     0.15100
H609        H  0.27185255  0.51955012  0.27433407     0.28400
H610        H  0.23704178  0.52627139  0.23157077     0.28400
C611        C  0.25177313  0.47473886  0.39459210    -0.14200
C612        C  0.24791523  0.50002973  0.37731600    -0.29400
H613        H  0.26263003  0.99529402  0.36576333     0.14800
H614        H  0.24201384  0.52017089  0.39154544     0.15400
C615        C  0.26426075  0.51137647  0.12738097    -0.14200
C616        C  0.24999397  0.52847466  0.10547600    -0.29400
H617        H  0.25971738  0.94140722  0.12413593     0.14800
H618        H  0.23568057  0.54582172  0.11548465     0.15400
C619        C  0.11914893  0.50426498  0.24487445    -0.11100
C620        C  0.14597766  0.50600452  0.24654517    -0.12600
C621        C  0.39078419  0.50718056  0.25536855    -0.11100
C622        C  0.36415067  0.50958590  0.25577609    -0.12600
C623        C  0.11530265  0.48691487  0.98859668    -0.11100
C624        C  0.14207849  0.48468347  0.98847273    -0.12600
C625        C  0.36103631  0.47698359  0.99802119    -0.11100
C626        C  0.38779939  0.47961048  0.00013498    -0.12600
C627        C  0.00385129  0.85535657  0.25465198    -0.11100
C628        C  0.00334750  0.88225931  0.25425780    -0.12600
C629        C  0.99617601  0.60918178  0.24348546    -0.11100
C630        C  0.99523041  0.63596544  0.24327294    -0.12600
C631        C  0.96215418  0.75905398  0.37426738    -0.14200
C632        C  0.94271778  0.74483176  0.35358266    -0.29400
H633        H  0.97977677  0.77327106  0.36311072     0.14800
H634        H  0.44387517  0.73235052  0.37672893     0.15400
C635        C  0.06129522  0.74683936  0.14782576    -0.14200
C636        C  0.04120088  0.75660544  0.12589730    -0.29400
H637        H  0.08091551  0.73560162  0.13807223     0.14800
H638        H  0.49081939  0.75164508  0.14475141     0.15400
C639        C  0.01949085  0.88722833  0.00452872    -0.11100
C640        C  0.02293312  0.86064192  0.00481765    -0.12600
C641        C  0.98764027  0.64341139  0.48854655    -0.11100
C642        C  0.99035006  0.61675022  0.48904366    -0.12600
N643        N  0.99062856  0.71851831  0.52936899    -0.34400
N644        N  0.99016028  0.78355213  0.53408302    -0.54900
N645        N  0.46763751  0.78202923  0.97021541    -0.34400
N646        N  0.46643083  0.71622395  0.97108580    -0.54900
C647        C  0.98922604  0.72290815  0.56413656     0.29200
C648        C  0.51787400  0.69440094  0.53117876     0.29200
C649        C  0.01380994  0.81260968  0.97513680     0.29200
C650        C  0.46851405  0.77538610  0.93579411     0.29200
C651        C  0.00071727  0.77753560  0.56556605     0.37800
C652        C  0.99424717  0.81310998  0.52944316     0.37800
C653        C  0.46336641  0.68666612  0.97678900     0.37800
C654        C  0.45598324  0.72090543  0.93919678     0.37800
C655        C  0.98160141  0.69616710  0.58029996    -0.19700
C656        C  0.51493700  0.68203880  0.56391519    -0.19700
C657        C  0.99741685  0.82508254  0.94933170    -0.19700
C658        C  0.47821932  0.80042877  0.91746073    -0.19700
C659        C  0.01131827  0.80356857  0.58126597    -0.20700
C660        C  0.00750332  0.82608272  0.55817452    -0.20700
C661        C  0.45030599  0.67252435  0.94863542    -0.20700
C662        C  0.44566249  0.69422829  0.92477754    -0.20700
C663        C  0.99731504  0.74962271  0.58169062    -0.16100
C664        C  0.47559461  0.67203997  0.00504967    -0.16100
C665        C  0.46095292  0.74737616  0.92046397    -0.16100
C666        C  0.98343243  0.82866585  0.50110939    -0.14300
H667        H  0.97906564  0.69208840  0.60787237     0.16800
H668        H  0.50827007  0.65938533  0.57024579     0.16800
H669        H  0.99085565  0.84796874  0.94744471     0.16800
H670        H  0.48164814  0.80244073  0.88966782     0.16800
H671        H  0.02011349  0.80641063  0.60696918     0.15100
H672        H  0.01284077  0.84942718  0.56258657     0.15100
H673        H  0.44587903  0.64891716  0.94499706     0.15100
H674        H  0.43701897  0.69059797  0.89906128     0.15100
H675        H  0.99922925  0.73355040  0.51115217     0.28400
H676        H  0.45907836  0.76834407  0.98987844     0.28400
N677        N  0.97418599  0.71460632  0.78654861    -0.34400
N678        N  0.00773617  0.71632151  0.72160255    -0.54900
N679        N  0.00412394  0.78183735  0.72175371    -0.34400
N680        N  0.97416397  0.78084920  0.78752219    -0.54900
C681        C  0.98188757  0.68570856  0.78377562     0.29200
C682        C  0.96767377  0.72002393  0.82044344     0.29200
C683        C  0.02181192  0.77717911  0.69354923     0.29200
C684        C  0.00550362  0.81136308  0.72922284     0.29200
C685        C  0.00244456  0.68660500  0.72329460     0.37800
C686        C  0.01661069  0.72181651  0.68849267     0.37800
C687        C  0.96024210  0.77514104  0.81818114     0.37800
C688        C  0.97333748  0.81054081  0.78273386     0.37800
C689        C  0.97817081  0.67212428  0.81576587    -0.19700
C690        C  0.96928088  0.69377925  0.83890685    -0.19700
C691        C  0.03457862  0.80398698  0.68263461    -0.19700
C692        C  0.02446319  0.82557723  0.70530408    -0.19700
C693        C  0.00922854  0.67308297  0.69165057    -0.20700
C694        C  0.01812855  0.69541592  0.66956160    -0.20700
C695        C  0.95015142  0.80138668  0.83298776    -0.20700
C696        C  0.95815617  0.82381434  0.81032789    -0.20700
C697        C  0.99255650  0.67132649  0.75331234    -0.16100
C698        C  0.96214008  0.74813249  0.83603989    -0.16100
C699        C  0.98898989  0.82594604  0.75586909    -0.16100
C700        C  0.02304449  0.75026632  0.67457841    -0.16100
H701        H  0.98235652  0.64924275  0.82204180     0.16800
H702        H  0.96495094  0.69067564  0.86644497     0.16800
H703        H  0.04924658  0.80763702  0.66027901     0.16800
H704        H  0.02993402  0.84913196  0.70382287     0.16800
H705        H  0.00759719  0.64963194  0.68504615     0.15100
H706        H  0.02501821  0.69254376  0.64260499     0.15100
H707        H  0.93923001  0.80416642  0.85815926     0.15100
H708        H  0.95462267  0.84730421  0.81458610     0.15100
H709        H  0.97262894  0.72955839  0.76643500     0.28400
H710        H  0.98878628  0.76631609  0.73159324     0.28400
O711        O  0.47965793  0.51351775  0.91414986    -0.76300
C712        C  0.41952556  0.48504696  0.00145348     0.84800
O713        O  0.00803350  0.57489581  0.51644066    -0.77400
O714        O  0.48598568  0.98551317  0.59303888    -0.78900
O715        O  0.02905789  0.93430687  0.98078091    -0.78700
O716        O  0.02476353  0.98608434  0.91476822    -0.77300
Zn717      Zn  0.47263962  0.52038707  0.96872068     1.55700
O718        O  0.48947894  0.93495065  0.52532058    -0.78700
Cd719      Cd  0.03218760  0.97963350  0.96939384     1.59700
Cd720      Cd  0.02037116  0.53216127  0.52924157     1.59600
O721        O  0.07578667  0.99335550  0.97946805    -0.78700
O722        O  0.00100685  0.50201381  0.99499581    -1.89200
Cd723      Cd  0.47794457  0.97841623  0.53812432     1.59900
O724        O  0.06609050  0.53056043  0.52085948    -0.78600
O725        O  0.43270485  0.98338054  0.52948287    -0.77300
C726        C  0.01464865  0.58299636  0.99902636     0.85200
C727        C  0.99991253  0.50037096  0.88996205     0.84900
O728        O  0.43129751  0.50396300  0.98043380    -0.76200
C729        C  0.99084938  0.91963009  0.50286747     0.85700
O730        O  0.47397254  0.56495823  0.98014094    -0.76300
C731        C  0.08304511  0.51694226  0.49925610     0.85800
C732        C  0.99757817  0.50238968  0.59981947     0.86200
O733        O  0.01105182  0.52405181  0.58399181    -0.78800
O734        O  0.48341053  0.52210969  0.66495167    -0.76300
C735        C  0.41569586  0.50233803  0.75095777     0.84800
O736        O  0.01631223  0.56745028  0.76853071    -0.77400
O737        O  0.48976113  0.97948486  0.84325919    -0.78900
O738        O  0.01089442  0.92891026  0.73105852    -0.78700
O739        O  0.01709992  0.98019519  0.66343241    -0.77300
Zn740      Zn  0.47511327  0.52696704  0.71957026     1.55700
O741        O  0.49419368  0.93052274  0.77387517    -0.78700
Cd742      Cd  0.02486739  0.97223034  0.71817525     1.59700
Cd743      Cd  0.02438022  0.52278573  0.77672563     1.59600
O744        O  0.07072001  0.97571344  0.72650008    -0.78700
O745        O  0.99755945  0.49868361  0.74420650    -1.89200
Cd746      Cd  0.48220882  0.97315491  0.78811420     1.59900
O747        O  0.06840963  0.51386570  0.76198017    -0.78600
O748        O  0.43690131  0.97610931  0.77905652    -0.77300
C749        C  0.99862270  0.58065129  0.74883551     0.85200
C750        C  0.99738707  0.50088130  0.63957974     0.84900
O751        O  0.43112674  0.51833398  0.72959056    -0.76200
C752        C  0.99406730  0.91732709  0.75485542     0.85700
O753        O  0.48497527  0.56995796  0.73320083    -0.76300
C754        C  0.08677065  0.98936397  0.74892497     0.85800
C755        C  0.00450150  0.99996478  0.85918241     0.86200
O756        O  0.01757757  0.51623473  0.83216699    -0.78800
N757        N  0.28518999  0.54675907  0.52596793    -0.34400
N758        N  0.21875519  0.54759236  0.52737751    -0.54900
N759        N  0.22017910  0.46712291  0.95926136    -0.34400
N760        N  0.28523128  0.45996694  0.96333979    -0.54900
C761        C  0.28007756  0.56161392  0.55617384     0.29200
C762        C  0.31442606  0.53995911  0.52495291     0.29200
C763        C  0.19019895  0.46700868  0.96458780     0.29200
C764        C  0.22578826  0.44880192  0.93198477     0.29200
C765        C  0.22432836  0.56495926  0.55539766     0.37800
C766        C  0.18884975  0.54449017  0.52565210     0.37800
C767        C  0.31487811  0.46150279  0.96837770     0.37800
C768        C  0.28140220  0.44910533  0.93087809     0.37800
C769        C  0.30671129  0.56633977  0.57307834    -0.19700
C770        C  0.32840783  0.55298182  0.55323534    -0.19700
C771        C  0.17680187  0.44816053  0.94048212    -0.19700
C772        C  0.19924081  0.43674816  0.91988653    -0.19700
C773        C  0.19778501  0.57419455  0.57050478    -0.20700
C774        C  0.17528704  0.56150225  0.55142011    -0.20700
C775        C  0.32996810  0.45038375  0.93943685    -0.20700
C776        C  0.30882233  0.44299279  0.91545448    -0.20700
C777        C  0.25191458  0.56701884  0.57199096    -0.16100
C778        C  0.32855929  0.52036593  0.50108545    -0.16100
C779        C  0.25366765  0.44589672  0.91453726    -0.16100
C780        C  0.17367209  0.52536087  0.50228960    -0.16100
H781        H  0.30985296  0.57695848  0.59817862     0.16800
H782        H  0.35143671  0.55124155  0.56021237     0.16800
H783        H  0.15326249  0.44343223  0.93767842     0.16800
H784        H  0.19638901  0.42182462  0.89785824     0.16800
H785        H  0.19497331  0.58758953  0.59385098     0.15100
H786        H  0.15170950  0.56331127  0.55701177     0.15100
H787        H  0.35379107  0.44940537  0.93518475     0.15100
H788        H  0.31340069  0.43446953  0.88953151     0.15100
H789        H  0.26942473  0.54118179  0.50766938     0.28400
H790        H  0.23582451  0.48168845  0.96995326     0.28400
N791        N  0.27896549  0.48457345  0.77529213    -0.34400
N792        N  0.21395027  0.48313870  0.77126746    -0.54900
N793        N  0.21825698  0.51008161  0.70431743    -0.34400
N794        N  0.28319115  0.51361918  0.70867770    -0.54900
C795        C  0.27084951  0.48008757  0.80891989     0.29200
C796        C  0.30760667  0.49468054  0.77479031     0.29200
C797        C  0.18860720  0.51195360  0.71062038     0.29200
C798        C  0.22538795  0.52775255  0.67705058     0.29200
C799        C  0.21697760  0.46802470  0.80093680     0.37800
C800        C  0.18499674  0.48026571  0.76297987     0.37800
C801        C  0.31213156  0.50736431  0.71257001     0.37800
C802        C  0.28013549  0.52002846  0.67479861     0.37800
C803        C  0.29474225  0.48729422  0.82993889    -0.19700
C804        C  0.31802354  0.49617151  0.80833254    -0.19700
C805        C  0.17670276  0.53093505  0.68690074    -0.19700
C806        C  0.19984418  0.54073883  0.66558706    -0.19700
C807        C  0.18985561  0.45525275  0.81148437    -0.20700
C808        C  0.16958441  0.46295651  0.78735584    -0.20700
C809        C  0.32769994  0.51033895  0.68125125    -0.20700
C810        C  0.30740660  0.51825569  0.65723703    -0.20700
C811        C  0.24272133  0.46902310  0.82103450    -0.16100
C812        C  0.32486650  0.50116785  0.74463413    -0.16100
C813        C  0.25358897  0.52942177  0.66000852    -0.16100
C814        C  0.17185389  0.49569025  0.73591008    -0.16100
H815        H  0.29546468  0.48643748  0.85797955     0.16800
H816        H  0.34000416  0.50323918  0.81642191     0.16800
H817        H  0.15363636  0.53666279  0.68468024     0.16800
H818        H  0.19771523  0.55529681  0.64377734     0.16800
H819        H  0.18500200  0.44254836  0.83476293     0.15100
H820        H  0.14603341  0.45734001  0.78832210     0.15100
H821        H  0.35121561  0.50733124  0.67630278     0.15100
H822        H  0.31232952  0.52259951  0.63007033     0.15100
H823        H  0.26661696  0.47837086  0.75375701     0.28400
H824        H  0.23219672  0.49472083  0.71478802     0.28400
C825        C  0.25379123  0.44381880  0.87600944    -0.14200
C826        C  0.23830909  0.46358318  0.85852620    -0.29400
H827        H  0.28055365  0.01028337  0.87415188     0.14800
H828        H  0.22299094  0.47808895  0.87235802     0.15400
C829        C  0.25496675  0.53690840  0.62285854    -0.14200
C830        C  0.25039099  0.56408337  0.61025226    -0.29400
H831        H  0.27372718  0.92078491  0.62901704     0.14800
H832        H  0.24402766  0.58253928  0.62704713     0.15400
C833        C  0.11264981  0.49692638  0.73632888    -0.11100
C834        C  0.13952756  0.49630015  0.73538896    -0.12600
C835        C  0.38380438  0.50246597  0.74911036    -0.11100
C836        C  0.35704804  0.50215482  0.74705478    -0.12600
C837        C  0.11463671  0.52210017  0.50137961    -0.11100
C838        C  0.14136018  0.52496944  0.50262773    -0.12600
C839        C  0.36076815  0.51836786  0.50179805    -0.11100
C840        C  0.38746490  0.51601020  0.50183967    -0.12600
C841        C  0.98962736  0.85837853  0.75653893    -0.11100
C842        C  0.99109900  0.88530847  0.75612493    -0.12600
C843        C  0.99685628  0.61246462  0.75143568    -0.11100
C844        C  0.99472176  0.63915413  0.75310698    -0.12600
C845        C  0.99621901  0.74894489  0.88307218    -0.14200
C846        C  0.96789658  0.75084850  0.87346934    -0.29400
H847        H  0.01355795  0.74462767  0.86358002     0.14800
H848        H  0.43161929  0.77079823  0.86655768     0.15400
C849        C  0.02445959  0.75263769  0.63649477    -0.14200
C850        C  0.99897357  0.74851451  0.61968437    -0.29400
H851        H  0.04517083  0.75862155  0.62288170     0.14800
H852        H  0.52113368  0.77451265  0.63268095     0.15400
C853        C  0.98729040  0.88776923  0.50260357    -0.11100
C854        C  0.98507858  0.86094739  0.50197704    -0.12600
C855        C  0.02295170  0.64176408  0.00231886    -0.11100
C856        C  0.01922334  0.61495785  0.00076030    -0.12600
N857        N  0.50689930  0.22041250  0.02923501    -0.34400
N858        N  0.50737174  0.28639660  0.02731846    -0.54900
N859        N  0.03660853  0.28572559  0.46528835    -0.34400
N860        N  0.03625073  0.21935975  0.46672149    -0.54900
C861        C  0.48683551  0.22679651  0.05460288     0.29200
C862        C  0.97533137  0.18977739  0.02399584     0.29200
C863        C  0.50738265  0.31847445  0.47924915     0.29200
C864        C  0.04996958  0.27973702  0.43427888     0.29200
C865        C  0.49400275  0.28212471  0.05866939     0.37800
C866        C  0.51387007  0.31587715  0.02544405     0.37800
C867        C  0.03524462  0.18971005  0.47230966     0.37800
C868        C  0.05385846  0.22407943  0.43840854     0.37800
C869        C  0.47138989  0.20104109  0.06449804    -0.19700
C870        C  0.95233810  0.17562324  0.04261804    -0.19700
C871        C  0.51547769  0.33197897  0.44809870    -0.19700
C872        C  0.05396508  0.30595780  0.41580637    -0.19700
C873        C  0.49113682  0.30904815  0.07626993    -0.20700
C874        C  0.50354696  0.33047503  0.05509738    -0.20700
C875        C  0.05294176  0.17543714  0.44767108    -0.20700
C876        C  0.06442903  0.19720020  0.42592493    -0.20700
C877        C  0.48485258  0.25433493  0.07227073    -0.16100
C878        C  0.01625523  0.17529874  0.49709653    -0.16100
C879        C  0.05610187  0.25115118  0.42022262    -0.16100
C880        C  0.52790441  0.33007224  0.99680362    -0.14300
H881        H  0.45432590  0.19888849  0.08472228     0.16800
H882        H  0.94655144  0.15209464  0.04261019     0.16800
H883        H  0.51204784  0.35475784  0.44071819     0.16800
H884        H  0.06400668  0.30858969  0.39011788     0.16800
H885        H  0.48104215  0.31290895  0.10169441     0.15100
H886        H  0.50511012  0.35405074  0.06105191     0.15100
H887        H  0.05608193  0.15175924  0.44465066     0.15100
H888        H  0.07829251  0.19361170  0.40294982     0.15100
H889        H  0.52402193  0.23478344  0.02114101     0.28400
H890        H  0.03239847  0.27067424  0.48497958     0.28400
N891        N  0.49466900  0.21790435  0.29335149    -0.34400
N892        N  0.49463223  0.21529146  0.21946110    -0.54900
N893        N  0.49503431  0.28068684  0.21703333    -0.34400
N894        N  0.49684339  0.28334828  0.29077031    -0.54900
C895        C  0.49934147  0.18855670  0.28817757     0.29200
C896        C  0.50307818  0.22478989  0.32592867     0.29200
C897        C  0.50285219  0.27365151  0.18395776     0.29200
C898        C  0.50195140  0.30992197  0.22186648     0.29200
C899        C  0.48912195  0.18611566  0.22542817     0.37800
C900        C  0.49118547  0.21907342  0.18520306     0.37800
C901        C  0.49334161  0.27923972  0.32524232     0.37800
C902        C  0.49179509  0.31234256  0.28510224     0.37800
C903        C  0.51004909  0.17642510  0.31812823    -0.19700
C904        C  0.51237846  0.19927867  0.34199248    -0.19700
C905        C  0.51477190  0.29872950  0.16744383    -0.19700
C906        C  0.51399551  0.32172761  0.19135812    -0.19700
C907        C  0.48220419  0.17125115  0.19480716    -0.20700
C908        C  0.48358476  0.19218559  0.16921598    -0.20700
C909        C  0.48603969  0.30583064  0.34166210    -0.20700
C910        C  0.48499612  0.32682658  0.31614295    -0.20700
C911        C  0.49341107  0.17239810  0.25741782    -0.16100
C912        C  0.50028681  0.25287885  0.34233698    -0.16100
C913        C  0.49645049  0.32622397  0.25277277    -0.16100
C914        C  0.49751181  0.24578459  0.16766271    -0.16100
H915        H  0.51553361  0.15349455  0.32240282     0.16800
H916        H  0.51953448  0.19702926  0.36838036     0.16800
H917        H  0.52304306  0.30032643  0.14086555     0.16800
H918        H  0.52151156  0.34446910  0.18684870     0.16800
H919        H  0.47750015  0.14769470  0.19113635     0.15100
H920        H  0.48010683  0.18794972  0.14185907     0.15100
H921        H  0.48253059  0.30988810  0.36922016     0.15100
H922        H  0.48064486  0.35019463  0.32009932     0.15100
H923        H  0.48343358  0.23175872  0.27709976     0.28400
H924        H  0.48248358  0.26714250  0.23386539     0.28400
O925        O  0.98480721  0.01871540  0.41610097    -0.76300
C926        C  0.91838390  0.00984646  0.50579227     0.84800
O927        O  0.52950441  0.06889285  0.02626924    -0.77400
O928        O  0.98028414  0.48756066  0.08450678    -0.78900
O929        O  0.51216252  0.43569369  0.48106768    -0.78700
O930        O  0.51841556  0.48470519  0.41296135    -0.77300
Zn931      Zn  0.97887007  0.02781950  0.47057045     1.55700
O932        O  0.97493176  0.43569228  0.01888376    -0.78700
Cd933      Cd  0.52410590  0.47918460  0.46810667     1.59700
Cd934      Cd  0.53185126  0.02321832  0.03734820     1.59600
O935        O  0.56898333  0.48554080  0.47861341    -0.78700
O936        O  0.50038463  0.00559744  0.50398215    -1.89200
Cd937      Cd  0.97262513  0.48108219  0.02955369     1.59900
O938        O  0.57445560  0.00921807  0.02433595    -0.78600
O939        O  0.93004954  0.49501996  0.01992745    -0.77300
C940        C  0.49516534  0.08719555  0.50396247     0.85200
C941        C  0.50030880  0.00308590  0.39944924     0.84900
O942        O  0.93444779  0.02395821  0.48321473    -0.76200
C943        C  0.51535565  0.41995710  0.99683039     0.85700
O944        O  0.99287494  0.07060259  0.48027141    -0.76300
C945        C  0.58543643  0.99080028  0.00229850     0.85800
C946        C  0.50426712  0.00123571  0.11009879     0.86200
O947        O  0.52431542  0.01613827  0.09279327    -0.78800
O948        O  0.98714464  0.01619180  0.16648687    -0.76300
C949        C  0.92092520  0.99521793  0.25317166     0.84800
O950        O  0.51573700  0.07004657  0.27758151    -0.77400
O951        O  0.99036821  0.47726165  0.33445336    -0.78900
O952        O  0.51598773  0.43021321  0.22783869    -0.78700
O953        O  0.51822390  0.48033707  0.16077987    -0.77300
Zn954      Zn  0.97868799  0.02128980  0.22078237     1.55700
O955        O  0.99244878  0.42516035  0.26513584    -0.78700
Cd956      Cd  0.52654279  0.47423864  0.21553237     1.59700
Cd957      Cd  0.52619144  0.02643728  0.28754222     1.59600
O958        O  0.57176653  0.48190547  0.22431130    -0.78700
O959        O  0.50189264  0.00065129  0.25432125    -1.89200
Cd960      Cd  0.98215361  0.46875519  0.27971511     1.59900
O961        O  0.57129580  0.02016825  0.27605921    -0.78600
O962        O  0.93660390  0.47353205  0.27317555    -0.77300
C963        C  0.49857141  0.08188767  0.25613366     0.85200
C964        C  0.50427328  0.00090587  0.14989179     0.84900
O965        O  0.93555489  0.01143656  0.23140192    -0.76200
C966        C  0.49938495  0.41736183  0.25087027     0.85700
O967        O  0.98577076  0.06446035  0.23299746    -0.76300
C968        C  0.58648813  0.49703974  0.24673148     0.85800
C969        C  0.50341989  0.50206055  0.35627453     0.86200
O970        O  0.51828665  0.01964759  0.34246364    -0.78800
N971        N  0.78406747  0.96907031  0.03940442    -0.34400
N972        N  0.71826947  0.97088471  0.03703129    -0.54900
N973        N  0.72011611  0.02637733  0.46422419    -0.34400
N974        N  0.78557503  0.02668685  0.46636655    -0.54900
C975        C  0.77624847  0.96792641  0.07360072     0.29200
C976        C  0.81338835  0.97713460  0.03718146     0.29200
C977        C  0.69095503  0.03155666  0.47044837     0.29200
C978        C  0.72775402  0.03850165  0.43329043     0.29200
C979        C  0.72137404  0.95858318  0.06836766     0.37800
C980        C  0.68897274  0.96896092  0.03018021     0.37800
C981        C  0.81408568  0.01902268  0.47099569     0.37800
C982        C  0.78151213  0.02621461  0.43171831     0.37800
C983        C  0.80111609  0.97462824  0.09317586    -0.19700
C984        C  0.82459767  0.97993110  0.07025282    -0.19700
C985        C  0.67991099  0.04729790  0.44312310    -0.19700
C986        C  0.70310472  0.05151931  0.41952844    -0.19700
C987        C  0.69391967  0.94848361  0.08144120    -0.20700
C988        C  0.67337950  0.95488542  0.05708416    -0.20700
C989        C  0.82846562  0.01454076  0.43924972    -0.20700
C990        C  0.80773689  0.01872866  0.41435728    -0.20700
C991        C  0.74742288  0.96096044  0.08775734    -0.16100
C992        C  0.83014692  0.98226900  0.00606333    -0.16100
C993        C  0.75508802  0.03415236  0.41543643    -0.16100
C994        C  0.67590899  0.98295196  0.00208105    -0.16100
H995        H  0.80221487  0.97621311  0.12111836     0.16800
H996        H  0.84710000  0.98619530  0.07717833     0.16800
H997        H  0.65732596  0.05431293  0.44006412     0.16800
H998        H  0.70161767  0.06231932  0.39474939     0.16800
H999        H  0.68907929  0.93861370  0.10653890     0.15100
H1000       H  0.64958913  0.95094426  0.05965153     0.15100
H1001       H  0.85131637  0.00841026  0.43455453     0.15100
H1002       H  0.81162226  0.01639620  0.38665760     0.15100
H1003       H  0.77059045  0.96290141  0.01882054     0.28400
H1004       H  0.73304290  0.01166508  0.47739139     0.28400
N1005       N  0.78784565  0.02534732  0.27612972    -0.34400
N1006       N  0.72206820  0.02620427  0.27793057    -0.54900
N1007       N  0.72049492  0.97966164  0.22595000    -0.34400
N1008       N  0.78560818  0.97576513  0.22650454    -0.54900
C1009       C  0.78303186  0.04148413  0.30550211     0.29200
C1010       C  0.81661356  0.01727034  0.27600914     0.29200
C1011       C  0.69082431  0.98231285  0.23153223     0.29200
C1012       C  0.72456937  0.95824433  0.20157342     0.29200
C1013       C  0.72782951  0.04722722  0.30225918     0.37800
C1014       C  0.69232858  0.02514736  0.27383558     0.37800
C1015       C  0.81543340  0.97969347  0.22767321     0.37800
C1016       C  0.78033731  0.95764045  0.19897856     0.37800
C1017       C  0.80956980  0.04548574  0.32280471    -0.19700
C1018       C  0.83073820  0.03024979  0.30423077    -0.19700
C1019       C  0.67587194  0.96153918  0.21089885    -0.19700
C1020       C  0.69715495  0.94663314  0.19173097    -0.19700
C1021       C  0.70159766  0.06007071  0.31348013    -0.20700
C1022       C  0.67911363  0.04630048  0.29523998    -0.20700
C1023       C  0.82923286  0.96275484  0.20198264    -0.20700
C1024       C  0.80701533  0.94885235  0.18376521    -0.20700
C1025       C  0.75520953  0.05100365  0.31895156    -0.16100
C1026       C  0.83055770  0.99811846  0.25166942    -0.16100
C1027       C  0.75207280  0.95112697  0.18517349    -0.16100
C1028       C  0.67679355  0.00403692  0.25296354    -0.16100
H1029       H  0.81317012  0.05769329  0.34682235     0.16800
H1030       H  0.85367861  0.02814435  0.31140744     0.16800
H1031       H  0.65206797  0.95816289  0.20887658     0.16800
H1032       H  0.69296512  0.92954937  0.17226604     0.16800
H1033       H  0.69890696  0.07696943  0.33348877     0.15100
H1034       H  0.65565065  0.05058932  0.29839385     0.15100
H1035       H  0.85282809  0.96113579  0.19637785     0.15100
H1036       H  0.81025256  0.93443073  0.16135537     0.15100
H1037       H  0.77272965  0.02094483  0.25679669     0.28400
H1038       H  0.73709355  0.99362849  0.23508498     0.28400
C1039       C  0.75500995  0.03272418  0.37726413    -0.14200
C1040       C  0.75337336  0.05654339  0.35685236    -0.29400
H1041       H  0.75331688  0.41966886  0.37994133     0.14800
H1042       H  0.75049898  0.07878933  0.36748090     0.15400
C1043       C  0.75169040  0.94257401  0.14791228    -0.14200
C1044       C  0.74269398  0.96296188  0.12573383    -0.29400
H1045       H  0.77921248  0.51613798  0.11811046     0.14800
H1046       H  0.73225261  0.98297675  0.13569544     0.15400
C1047       C  0.61746316  0.00439278  0.25431458    -0.11100
C1048       C  0.64438822  0.00443531  0.25380998    -0.12600
C1049       C  0.88921703  0.99542545  0.25265600    -0.11100
C1050       C  0.86256603  0.99647708  0.25223917    -0.12600
C1051       C  0.61705863  0.98701415  0.00168955    -0.11100
C1052       C  0.64371524  0.98458923  0.00176165    -0.12600
C1053       C  0.86268525  0.98439045  0.00714523    -0.11100
C1054       C  0.88967228  0.98700396  0.00686057    -0.12600
C1055       C  0.49730186  0.35850405  0.25162047    -0.11100
C1056       C  0.49807370  0.38537279  0.25119483    -0.12600
C1057       C  0.49600161  0.11356583  0.25712144    -0.11100
C1058       C  0.49434668  0.14025702  0.25789220    -0.12600
C1059       C  0.53170726  0.25315556  0.39353968    -0.14200
C1060       C  0.50470904  0.25503816  0.37986425    -0.29400
H1061       H  0.55122441  0.24813973  0.37757111     0.14800
H1062       H  0.01032729  0.25957547  0.38367841     0.15400
C1063       C  0.50022580  0.24399179  0.12979198    -0.14200
C1064       C  0.47863291  0.25333562  0.10980167    -0.29400
H1065       H  0.52031868  0.23473641  0.11827619     0.14800
H1066       H  0.92974689  0.26361470  0.12597266     0.15400
C1067       C  0.52134366  0.38867059  0.99542540    -0.11100
C1068       C  0.52556679  0.36223123  0.99505933    -0.12600
C1069       C  0.49271418  0.14598924  0.50292170    -0.11100
C1070       C  0.49332622  0.11911298  0.50301268    -0.12600
N1071       N  0.47049496  0.22248209  0.53206531    -0.34400
N1072       N  0.47085870  0.28818561  0.53446046    -0.54900
N1073       N  0.01348268  0.28639650  0.97356285    -0.34400
N1074       N  0.01573197  0.22044409  0.97380737    -0.54900
C1075       C  0.45226613  0.22676780  0.55993021     0.29200
C1076       C  0.99684409  0.19086034  0.51997161     0.29200
C1077       C  0.54179056  0.31462666  0.96884786     0.29200
C1078       C  0.02805568  0.28144772  0.94302255     0.29200
C1079       C  0.45473891  0.28280678  0.56390564     0.37800
C1080       C  0.47597078  0.31793660  0.53337162     0.37800
C1081       C  0.01630562  0.19083216  0.97952450     0.37800
C1082       C  0.03553220  0.22640038  0.94779446     0.37800
C1083       C  0.44166854  0.19936877  0.57190004    -0.19700
C1084       C  0.97524920  0.17752709  0.54149683    -0.19700
C1085       C  0.55072234  0.32765394  0.93773004    -0.19700
C1086       C  0.03062232  0.30784715  0.92464366    -0.19700
C1087       C  0.44856446  0.30952875  0.58074260    -0.20700
C1088       C  0.46194435  0.33173287  0.56136825    -0.20700
C1089       C  0.03701025  0.17789070  0.95724064    -0.20700
C1090       C  0.04901150  0.20040647  0.93695290    -0.20700
C1091       C  0.44781786  0.25426818  0.57764000    -0.16100
C1092       C  0.99630637  0.17515613  0.00213216    -0.16100
C1093       C  0.03809084  0.25371468  0.93010307    -0.16100
C1094       C  0.49220351  0.33294513  0.50681806    -0.14300
H1095       H  0.42698629  0.19524678  0.59413466     0.16800
H1096       H  0.96966052  0.15403523  0.54359423     0.16800
H1097       H  0.54937003  0.35080617  0.93071259     0.16800
H1098       H  0.04152173  0.31141134  0.89957799     0.16800
H1099       H  0.43612481  0.31286695  0.60482435     0.15100
H1100       H  0.46167930  0.35529498  0.56745226     0.15100
H1101       H  0.04210959  0.15455981  0.95491904     0.15100
H1102       H  0.06533952  0.19786074  0.91609922     0.15100
H1103       H  0.48214229  0.23917421  0.51916009     0.28400
H1104       H  0.01038726  0.27130440  0.99349953     0.28400
N1105       N  0.50070276  0.21804991  0.78968107    -0.34400
N1106       N  0.47424880  0.21470868  0.72341899    -0.54900
N1107       N  0.47396246  0.28010082  0.72021637    -0.34400
N1108       N  0.50217995  0.28322494  0.78649931    -0.54900
C1109       C  0.50338450  0.18866407  0.78269017     0.29200
C1110       C  0.51897086  0.22500929  0.81600032     0.29200
C1111       C  0.47192744  0.27231526  0.68627442     0.29200
C1112       C  0.48318047  0.30906970  0.72146465     0.29200
C1113       C  0.47173596  0.18551755  0.73110444     0.37800
C1114       C  0.46045479  0.21805700  0.69317737     0.37800
C1115       C  0.50956468  0.27941152  0.81991225     0.37800
C1116       C  0.49522373  0.31216594  0.78358142     0.37800
C1117       C  0.52345344  0.17672666  0.80497205    -0.19700
C1118       C  0.53317209  0.19960604  0.82611410    -0.19700
C1119       C  0.47979669  0.29672702  0.66589314    -0.19700
C1120       C  0.48634896  0.32005002  0.68810809    -0.19700
C1121       C  0.45572808  0.17025184  0.70592547    -0.20700
C1122       C  0.44871575  0.19090335  0.68171077    -0.20700
C1123       C  0.50767400  0.30619037  0.83812394    -0.20700
C1124       C  0.49866685  0.32694460  0.81505204    -0.20700
C1125       C  0.48716522  0.17215473  0.75783497    -0.16100
C1126       C  0.52008832  0.25273399  0.83359437    -0.16100
C1127       C  0.48852466  0.32577742  0.75205228    -0.16100
C1128       C  0.46266243  0.24400829  0.67318895    -0.16100
H1129       H  0.53008479  0.15382091  0.80626804     0.16800
H1130       H  0.54851669  0.19730720  0.84690484     0.16800
H1131       H  0.48127054  0.29762343  0.63788331     0.16800
H1132       H  0.49356979  0.34226564  0.68055307     0.16800
H1133       H  0.45093722  0.14655428  0.70426562     0.15100
H1134       H  0.43738659  0.18628132  0.65768676     0.15100
H1135       H  0.51274323  0.31053875  0.86507261     0.15100
H1136       H  0.49548906  0.35030673  0.82065012     0.15100
H1137       H  0.48452580  0.23172827  0.78042192     0.28400
H1138       H  0.46720112  0.26710940  0.74134707     0.28400
O1139       O  0.98502721  0.01410440  0.91712079    -0.76300
C1140       C  0.92187846  0.99048337  0.00620062     0.84800
O1141       O  0.51118140  0.07590018  0.52706969    -0.77400
O1142       O  0.98475313  0.48164639  0.58196718    -0.78900
O1143       O  0.52882426  0.43698739  0.97490634    -0.78700
O1144       O  0.52132835  0.48857803  0.91102728    -0.77300
Zn1145     Zn  0.97759616  0.02220947  0.97185317     1.55700
O1146       O  0.99035856  0.43233222  0.51327376    -0.78700
Cd1147     Cd  0.52953422  0.48245587  0.96560123     1.59700
Cd1148     Cd  0.52341296  0.03262383  0.53728748     1.59600
O1149       O  0.57214385  0.49856241  0.97701866    -0.78700
O1150       O  0.50394372  0.00071761  0.00463220    -1.89200
Cd1151     Cd  0.97825549  0.47541866  0.52667574     1.59900
O1152       O  0.56834062  0.03000717  0.52353460    -0.78600
O1153       O  0.93333795  0.48034193  0.51616423    -0.77300
C1154       C  0.51511128  0.08309185  0.00379701     0.85200
C1155       C  0.50438958  0.99924225  0.90005824     0.84900
O1156       O  0.93445303  0.00885786  0.98487936    -0.76200
C1157       C  0.49409801  0.42371708  0.50324862     0.85700
O1158       O  0.98357090  0.06728866  0.98212894    -0.76300
C1159       C  0.58295234  0.01580079  0.50012668     0.85800
C1160       C  0.50254500  0.00425310  0.60965254     0.86200
O1161       O  0.51814489  0.02377601  0.59257869    -0.78800
O1162       O  0.98992677  0.02040290  0.66713005    -0.76300
C1163       C  0.92340187  0.00959314  0.75544572     0.84800
O1164       O  0.51316791  0.07109755  0.77873534    -0.77400
O1165       O  0.98084910  0.48230866  0.83391810    -0.78900
O1166       O  0.50720028  0.43028730  0.72602483    -0.78700
O1167       O  0.51295874  0.48364409  0.66132024    -0.77300
Zn1168     Zn  0.98430834  0.02728702  0.72197548     1.55700
O1169       O  0.98016139  0.42857558  0.76660390    -0.78700
Cd1170     Cd  0.51900929  0.47463218  0.71555901     1.59700
Cd1171     Cd  0.52596544  0.02812491  0.78851102     1.59600
O1172       O  0.56406983  0.48050433  0.72422913    -0.78700
O1173       O  0.50391810  0.00122695  0.75431289    -1.89200
Cd1174     Cd  0.97259067  0.47378850  0.77878103     1.59900
O1175       O  0.57126475  0.02477966  0.77696571    -0.78600
O1176       O  0.92800271  0.48287208  0.76918438    -0.77300
C1177       C  0.49520270  0.08190071  0.75739991     0.85200
C1178       C  0.50361851  0.00326594  0.64945211     0.84900
O1179       O  0.93998050  0.02436809  0.73401490    -0.76200
C1180       C  0.49158356  0.41735509  0.74991876     0.85700
O1181       O  0.99951893  0.06892648  0.73402610    -0.76300
C1182       C  0.57952605  0.49631232  0.74521167     0.85800
C1183       C  0.49895513  0.50066731  0.85594780     0.86200
O1184       O  0.51868899  0.02015410  0.84353770    -0.78800
N1185       N  0.78099773  0.00827531  0.53755601    -0.34400
N1186       N  0.71566364  0.01081176  0.53557028    -0.54900
N1187       N  0.72222264  0.99456865  0.96895700    -0.34400
N1188       N  0.78762334  0.99478942  0.97113552    -0.54900
C1189       C  0.77336991  0.00841974  0.57172009     0.29200
C1190       C  0.81031681  0.01597155  0.53488789     0.29200
C1191       C  0.69272446  0.99745770  0.97555052     0.29200
C1192       C  0.72941243  0.01093450  0.94066842     0.29200
C1193       C  0.71852020  0.99945739  0.56744536     0.37800
C1194       C  0.68640739  0.00882234  0.52865055     0.37800
C1195       C  0.81653183  0.98787162  0.97425576     0.37800
C1196       C  0.78392033  0.00099957  0.93727019     0.37800
C1197       C  0.79815679  0.01625692  0.59096494    -0.19700
C1198       C  0.82154288  0.02072670  0.56771593    -0.19700
C1199       C  0.68095677  0.01572260  0.95102911    -0.19700
C1200       C  0.70400169  0.02406440  0.92893039    -0.19700
C1201       C  0.69093003  0.99025671  0.58100061    -0.20700
C1202       C  0.67053778  0.99619497  0.55634542    -0.20700
C1203       C  0.83137291  0.99010620  0.94240008    -0.20700
C1204       C  0.81073901  0.99830675  0.91895093    -0.20700
C1205       C  0.74499220  0.00049556  0.58606925    -0.16100
C1206       C  0.82735690  0.01695112  0.50362029    -0.16100
C1207       C  0.75736744  0.01117072  0.92301485    -0.16100
C1208       C  0.67374648  0.02045167  0.49884350    -0.16100
H1209       H  0.79931238  0.01866066  0.61888913     0.16800
H1210       H  0.84416899  0.02690272  0.57421241     0.16800
H1211       H  0.65802972  0.02194519  0.94880974     0.16800
H1212       H  0.70169324  0.03762050  0.90634864     0.16800
H1213       H  0.68592248  0.98099177  0.60638846     0.15100
H1214       H  0.64673463  0.99234952  0.55889449     0.15100
H1215       H  0.85469773  0.98656777  0.93673433     0.15100
H1216       H  0.81521146  0.00229848  0.89162576     0.15100
H1217       H  0.76770312  0.00020858  0.51763448     0.28400
H1218       H  0.73591820  0.97929516  0.97999203     0.28400
N1219       N  0.78844678  0.03559127  0.78622208    -0.34400
N1220       N  0.72214389  0.03356160  0.78767266    -0.54900
N1221       N  0.72292418  0.00084302  0.72397595    -0.34400
N1222       N  0.78860014  0.99784638  0.72491030    -0.54900
C1223       C  0.78281775  0.04494113  0.81914705     0.29200
C1224       C  0.81791745  0.03017847  0.78352806     0.29200
C1225       C  0.69323774  0.99963513  0.73088171     0.29200
C1226       C  0.72835445  0.98168165  0.69752974     0.29200
C1227       C  0.72698711  0.04773764  0.81813457     0.37800
C1228       C  0.69243694  0.03289759  0.78304239     0.37800
C1229       C  0.81829348  0.00293217  0.72671205     0.37800
C1230       C  0.78392254  0.98529855  0.69341827     0.37800
C1231       C  0.80935615  0.04755144  0.83674343    -0.19700
C1232       C  0.83148538  0.03841973  0.81423992    -0.19700
C1233       C  0.67970855  0.97947874  0.70824563    -0.19700
C1234       C  0.70188586  0.96829327  0.68707149    -0.19700
C1235       C  0.70014368  0.05644397  0.83295578    -0.20700
C1236       C  0.67825997  0.04733697  0.81054249    -0.20700
C1237       C  0.83259903  0.99217720  0.69703415    -0.20700
C1238       C  0.81082716  0.98119262  0.67584253    -0.20700
C1239       C  0.75443438  0.04884563  0.83517710    -0.16100
C1240       C  0.83285640  0.01687219  0.75482027    -0.16100
C1241       C  0.75578768  0.97907421  0.67928556    -0.16100
C1242       C  0.67790530  0.01677236  0.75629809    -0.16100
H1243       H  0.81235172  0.05453727  0.86348288     0.16800
H1244       H  0.85471346  0.03678314  0.82038628     0.16800
H1245       H  0.65625844  0.97370357  0.70677489     0.16800
H1246       H  0.69889867  0.95253628  0.66586227     0.16800
H1247       H  0.69667599  0.06780630  0.85759885     0.15100
H1248       H  0.65459207  0.04985472  0.81479929     0.15100
H1249       H  0.85621492  0.99279485  0.69090979     0.15100
H1250       H  0.81451729  0.97160073  0.65022918     0.15100
H1251       H  0.77308140  0.03332055  0.76680568     0.28400
H1252       H  0.73807481  0.01676228  0.73279780     0.28400
C1253       C  0.75835347  0.01854862  0.88581073    -0.14200
C1254       C  0.75292221  0.04555933  0.87330918    -0.29400
H1255       H  0.76578535  0.45331932  0.87971877     0.14800
H1256       H  0.74652565  0.06393086  0.89021775     0.15400
C1257       C  0.75468618  0.97585870  0.64118378    -0.14200
C1258       C  0.74178858  0.99743003  0.62387901    -0.29400
H1259       H  0.75259852  0.49721891  0.60505094     0.14800
H1260       H  0.72913290  0.01424538  0.63785381     0.15400
C1261       C  0.61863796  0.01382018  0.75501384    -0.11100
C1262       C  0.64549449  0.01578980  0.75612279    -0.12600
C1263       C  0.89179384  0.01350711  0.75528232    -0.11100
C1264       C  0.86510858  0.01575271  0.75518578    -0.12600
C1265       C  0.61474214  0.01964131  0.49835796    -0.11100
C1266       C  0.64156972  0.02107332  0.49767923    -0.12600
C1267       C  0.85967466  0.01531763  0.50509049    -0.11100
C1268       C  0.88647007  0.01314952  0.50580138    -0.12600
C1269       C  0.48914458  0.35820836  0.75051293    -0.11100
C1270       C  0.48995699  0.38518194  0.75002696    -0.12600
C1271       C  0.49128725  0.11341791  0.75780960    -0.11100
C1272       C  0.48874966  0.14002600  0.75797234    -0.12600
C1273       C  0.55575863  0.24827998  0.88150310    -0.14200
C1274       C  0.52834978  0.25322814  0.87032999    -0.29400
H1275       H  0.57395230  0.24256904  0.86380983     0.14800
H1276       H  0.99869906  0.25503082  0.88314214     0.15400
C1277       C  0.46123631  0.23969092  0.63528657    -0.14200
C1278       C  0.44157069  0.25307621  0.61561228    -0.29400
H1279       H  0.47859595  0.22647214  0.62313401     0.14800
H1280       H  0.95686566  0.26692436  0.62149845     0.15400
C1281       C  0.49235663  0.39191068  0.50498831    -0.11100
C1282       C  0.49180776  0.36514616  0.50635914    -0.12600
C1283       C  0.52059613  0.14209390  0.99993248    -0.11100
C1284       C  0.51861237  0.11517964  0.00204622    -0.12600
N1285       N  0.48507252  0.71671928  0.04128646    -0.34400
N1286       N  0.48825625  0.78219017  0.04061961    -0.54900
N1287       N  0.97399174  0.78525146  0.46331884    -0.34400
N1288       N  0.97237075  0.71983614  0.45844156    -0.54900
C1289       C  0.49972435  0.72247069  0.07088639     0.29200
C1290       C  0.02906161  0.68976214  0.03442164     0.29200
C1291       C  0.49767444  0.81629976  0.47555238     0.29200
C1292       C  0.96034546  0.78055641  0.43288934     0.29200
C1293       C  0.49242467  0.77737489  0.07468394     0.37800
C1294       C  0.48329011  0.81157554  0.03765978     0.37800
C1295       C  0.98176170  0.69155124  0.45950223     0.37800
C1296       C  0.97159613  0.72696807  0.42453221     0.37800
C1297       C  0.51138086  0.69636745  0.08286728    -0.19700
C1298       C  0.02293759  0.67763063  0.06681285    -0.19700
C1299       C  0.47747795  0.82821416  0.45335704    -0.19700
C1300       C  0.94770855  0.80669602  0.42246217    -0.19700
C1301       C  0.49021543  0.80384828  0.09340050    -0.20700
C1302       C  0.48452525  0.82553645  0.06990465    -0.20700
C1303       C  0.98640360  0.68038884  0.42619599    -0.20700
C1304       C  0.98017360  0.70294667  0.40397105    -0.20700
C1305       C  0.50072945  0.75007026  0.08876645    -0.16100
C1306       C  0.98456246  0.67547854  0.49033959    -0.16100
C1307       C  0.96291098  0.75476136  0.41201711    -0.16100
C1308       C  0.48070531  0.82627095  0.00578944    -0.14300
H1309       H  0.52359298  0.69335993  0.10630801     0.16800
H1310       H  0.01532054  0.65511519  0.07247502     0.16800
H1311       H  0.46971667  0.85077759  0.45327590     0.16800
H1312       H  0.93601131  0.81030825  0.39871871     0.16800
H1313       H  0.49292516  0.80731504  0.12102308     0.15100
H1314       H  0.48214100  0.84896536  0.07578060     0.15100
H1315       H  0.99379706  0.65846030  0.41875481     0.15100
H1316       H  0.98218335  0.70185198  0.37593014     0.15100
H1317       H  0.47128560  0.73137067  0.02930889     0.28400
H1318       H  0.98869560  0.77081882  0.47416053     0.28400
N1319       N  0.48466346  0.71473141  0.27794629    -0.34400
N1320       N  0.52682276  0.71791380  0.22012704    -0.54900
N1321       N  0.52496955  0.78377254  0.22215005    -0.34400
N1322       N  0.48321644  0.78065250  0.28027805    -0.54900
C1323       C  0.49146441  0.68558615  0.27521193     0.29200
C1324       C  0.47061651  0.71859174  0.30907871     0.29200
C1325       C  0.53652455  0.77938356  0.18979137     0.29200
C1326       C  0.51823566  0.81292813  0.22482107     0.29200
C1327       C  0.52533433  0.68801023  0.22272594     0.37800
C1328       C  0.54179809  0.72398714  0.19019629     0.37800
C1329       C  0.46716982  0.77451747  0.30955549     0.37800
C1330       C  0.48569958  0.81066508  0.27830469     0.37800
C1331       C  0.47962623  0.67043700  0.30375547    -0.19700
C1332       C  0.46662330  0.69120240  0.32511949    -0.19700
C1333       C  0.53908465  0.80633862  0.17267860    -0.19700
C1334       C  0.52788863  0.82756204  0.19490178    -0.19700
C1335       C  0.54086744  0.67501275  0.19519059    -0.20700
C1336       C  0.55101478  0.69785431  0.17436773    -0.20700
C1337       C  0.45825801  0.80080996  0.32535923    -0.20700
C1338       C  0.46996801  0.82367874  0.30561539    -0.20700
C1339       C  0.50904736  0.67221390  0.24864070    -0.16100
C1340       C  0.46406705  0.74618207  0.32529290    -0.16100
C1341       C  0.50210443  0.82657528  0.25241116    -0.16100
C1342       C  0.54188880  0.75162859  0.17346573    -0.16100
H1343       H  0.48127063  0.64702853  0.30942287     0.16800
H1344       H  0.45618352  0.68660657  0.35019040     0.16800
H1345       H  0.54729392  0.81011151  0.14635927     0.16800
H1346       H  0.52555728  0.85081318  0.18885318     0.16800
H1347       H  0.54339799  0.65152720  0.18977534     0.15100
H1348       H  0.56275228  0.69552850  0.14962233     0.15100
H1349       H  0.44534891  0.80321791  0.34925203     0.15100
H1350       H  0.46774562  0.84717206  0.31121887     0.15100
H1351       H  0.48914168  0.73107804  0.25972339     0.28400
H1352       H  0.52197142  0.76782031  0.24120214     0.28400
O1353       O  0.98513309  0.51397567  0.40663016    -0.76300
C1354       C  0.92002394  0.49551240  0.49370533     0.84800
O1355       O  0.50539270  0.57208168  0.02404229    -0.77400
O1356       O  0.98869655  0.98069117  0.09151351    -0.78900
O1357       O  0.52313284  0.93839218  0.48132595    -0.78700
O1358       O  0.51952847  0.98834032  0.41547441    -0.77300
Zn1359     Zn  0.97666050  0.52357919  0.46014225     1.55700
O1360       O  0.99666797  0.93003758  0.02590670    -0.78700
Cd1361     Cd  0.52728479  0.98341357  0.46992968     1.59700
Cd1362     Cd  0.52090644  0.52984514  0.03412917     1.59600
O1363       O  0.57069002  0.99788532  0.47849721    -0.78700
O1364       O  0.50081843  0.50611164  0.50100953    -1.89200
Cd1365     Cd  0.98223257  0.97290181  0.03677407     1.59900
O1366       O  0.56670123  0.52924436  0.02306937    -0.78600
O1367       O  0.93670857  0.97506696  0.02704259    -0.77300
C1368       C  0.50871073  0.58759390  0.50082063     0.85200
C1369       C  0.50301081  0.50300583  0.39616527     0.84900
O1370       O  0.93383404  0.51206469  0.47158110    -0.76200
C1371       C  0.49193246  0.91743850  0.00582090     0.85700
O1372       O  0.98146102  0.56827193  0.46831170    -0.76300
C1373       C  0.58290518  0.51600823  0.00026112     0.85800
C1374       C  0.50120279  0.49952372  0.10564228     0.86200
O1375       O  0.51422118  0.52095872  0.08897263    -0.78800
O1376       O  0.98247445  0.51023432  0.15955140    -0.76300
C1377       C  0.92168692  0.48874755  0.25229169     0.84800
O1378       O  0.52526499  0.56829315  0.27174538    -0.77400
O1379       O  0.98295418  0.98070525  0.34229486    -0.78900
O1380       O  0.51831789  0.93183018  0.23121138    -0.78700
O1381       O  0.52248007  0.98472947  0.16585632    -0.77300
Zn1382     Zn  0.97654989  0.51712349  0.21429842     1.55700
O1383       O  0.98664275  0.92762425  0.27665165    -0.78700
Cd1384     Cd  0.52785429  0.97675733  0.22082223     1.59700
Cd1385     Cd  0.53037592  0.52376015  0.28321695     1.59600
O1386       O  0.57221992  0.98632978  0.23268877    -0.78700
O1387       O  0.50378435  0.50006286  0.25028836    -1.89200
Cd1388     Cd  0.97716046  0.97209992  0.28718205     1.59900
O1389       O  0.57414747  0.51303802  0.27038672    -0.78600
O1390       O  0.93318275  0.97918438  0.27559727    -0.77300
C1391       C  0.50980645  0.58147385  0.24958049     0.85200
C1392       C  0.50207489  0.49895418  0.14541698     0.84900
O1393       O  0.93402697  0.50545508  0.22915736    -0.76200
C1394       C  0.50202094  0.91791869  0.25378652     0.85700
O1395       O  0.98255129  0.56137295  0.22424382    -0.76300
C1396       C  0.58536470  0.00363477  0.25436388     0.85800
C1397       C  0.50034418  0.00239617  0.35972235     0.86200
O1398       O  0.52204625  0.51847441  0.33875536    -0.78800
N1399       N  0.78353722  0.53480211  0.03425187    -0.34400
N1400       N  0.71829906  0.54010164  0.03285982    -0.54900
N1401       N  0.71775418  0.46973594  0.47465632    -0.34400
N1402       N  0.78370255  0.47246434  0.46944823    -0.54900
C1403       C  0.77842808  0.55154711  0.06297880     0.29200
C1404       C  0.81340756  0.53480877  0.02828545     0.29200
C1405       C  0.68831638  0.47556687  0.47691065     0.29200
C1406       C  0.72217852  0.45348860  0.44526389     0.29200
C1407       C  0.72283646  0.55173110  0.06482875     0.37800
C1408       C  0.68856781  0.53864112  0.02864528     0.37800
C1409       C  0.81360253  0.47621565  0.47030152     0.37800
C1410       C  0.77812208  0.45255334  0.44374235     0.37800
C1411       C  0.80524342  0.56241125  0.07561597    -0.19700
C1412       C  0.82730655  0.55208619  0.05356842    -0.19700
C1413       C  0.67366919  0.46080735  0.45022294    -0.19700
C1414       C  0.69501021  0.44707897  0.43018509    -0.19700
C1415       C  0.69582154  0.55864599  0.08066921    -0.20700
C1416       C  0.67414866  0.55079876  0.05751275    -0.20700
C1417       C  0.82710238  0.45780043  0.44585992    -0.20700
C1418       C  0.80462975  0.44293028  0.42897681    -0.20700
C1419       C  0.75071285  0.55389792  0.08089909    -0.16100
C1420       C  0.82860538  0.51872764  0.00165687    -0.16100
C1421       C  0.74998036  0.44657676  0.42941089    -0.16100
C1422       C  0.67413925  0.52317160  0.00136046    -0.16100
H1423       H  0.80851110  0.57580077  0.09885523     0.16800
H1424       H  0.85094121  0.55614916  0.05644632     0.16800
H1425       H  0.65023056  0.46115341  0.44464033     0.16800
H1426       H  0.69108607  0.43459805  0.40642428     0.16800
H1427       H  0.69192760  0.56790995  0.10640033     0.15100
H1428       H  0.65042376  0.55221413  0.06231274     0.15100
H1429       H  0.85065409  0.45566097  0.44033989     0.15100
H1430       H  0.80743831  0.42714608  0.40782381     0.15100
H1431       H  0.76761148  0.52115906  0.02275940     0.28400
H1432       H  0.73396576  0.47635551  0.49198437     0.28400
N1433       N  0.78345129  0.47971038  0.28737794    -0.34400
N1434       N  0.71839208  0.47988925  0.28368848    -0.54900
N1435       N  0.72429223  0.50808538  0.21664577    -0.34400
N1436       N  0.78932574  0.50470405  0.21958107    -0.54900
C1437       C  0.77511767  0.46362974  0.31554648     0.29200
C1438       C  0.81265869  0.47494722  0.28077015     0.29200
C1439       C  0.69504066  0.49997486  0.21727609     0.29200
C1440       C  0.73242809  0.51286390  0.18308519     0.29200
C1441       C  0.72130423  0.47509640  0.31798039     0.37800
C1442       C  0.68990339  0.48773077  0.27962578     0.37800
C1443       C  0.81849661  0.50493195  0.22722151     0.37800
C1444       C  0.78726777  0.52001672  0.18988269     0.37800
C1445       C  0.79929568  0.44842385  0.32705792    -0.19700
C1446       C  0.82297674  0.45545023  0.30501462    -0.19700
C1447       C  0.68435953  0.49993693  0.18384807    -0.19700
C1448       C  0.70798597  0.50784397  0.16221171    -0.19700
C1449       C  0.69436464  0.47916531  0.33555257    -0.20700
C1450       C  0.67439080  0.48691457  0.31115645    -0.20700
C1451       C  0.83507689  0.52041162  0.20216958    -0.20700
C1452       C  0.81529047  0.52997089  0.17849504    -0.20700
C1453       C  0.74754985  0.46595162  0.33355350    -0.16100
C1454       C  0.83051168  0.48929045  0.25488642    -0.16100
C1455       C  0.76108194  0.52233742  0.17086115    -0.16100
C1456       C  0.67750610  0.49430877  0.24750277    -0.16100
H1457       H  0.80000178  0.43395092  0.34913531     0.16800
H1458       H  0.84535687  0.44755132  0.30702555     0.16800
H1459       H  0.66191615  0.49462864  0.17586863     0.16800
H1460       H  0.70716111  0.50954124  0.13423105     0.16800
H1461       H  0.68949256  0.47661063  0.36303814     0.15100
H1462       H  0.65121238  0.49167652  0.31610197     0.15100
H1463       H  0.85897485  0.52384043  0.20062103     0.15100
H1464       H  0.82098838  0.54217749  0.15506792     0.15100
H1465       H  0.77092858  0.49622115  0.27677110     0.28400
H1466       H  0.73720713  0.51306310  0.23808997     0.28400
C1467       C  0.75008622  0.44158908  0.39132208    -0.14200
C1468       C  0.74749887  0.46580438  0.37180227    -0.29400
H1469       H  0.75820137  0.01090063  0.36541500     0.14800
H1470       H  0.74398658  0.48718791  0.38461737     0.15400
C1471       C  0.76500542  0.53033787  0.13397840    -0.14200
C1472       C  0.75078530  0.55266469  0.11935947    -0.29400
H1473       H  0.76315032  0.92305912  0.13834192     0.14800
H1474       H  0.73592378  0.56619783  0.13511891     0.15400
C1475       C  0.61846236  0.49594128  0.24546211    -0.11100
C1476       C  0.64529940  0.49513287  0.24556133    -0.12600
C1477       C  0.88964500  0.48728553  0.25501857    -0.11100
C1478       C  0.86273753  0.48738049  0.25601666    -0.12600
C1479       C  0.61479161  0.52032839  0.00113205    -0.11100
C1480       C  0.64168355  0.52231578  0.00155876    -0.12600
C1481       C  0.86108217  0.51914590  0.00103496    -0.11100
C1482       C  0.88793429  0.51754195  0.99949545    -0.12600
C1483       C  0.50141641  0.85894434  0.25313761    -0.11100
C1484       C  0.50161996  0.88585619  0.25335535    -0.12600
C1485       C  0.51104490  0.61331208  0.24875957    -0.11100
C1486       C  0.51074980  0.64008508  0.24843334    -0.12600
C1487       C  0.48356873  0.75798875  0.38173003    -0.14200
C1488       C  0.46114287  0.74579737  0.36374747    -0.29400
H1489       H  0.50123263  0.77061085  0.36825516     0.14800
H1490       H  0.92575795  0.72993164  0.36479498     0.15400
C1491       C  0.53713504  0.75026699  0.13569745    -0.14200
C1492       C  0.50885671  0.75016221  0.12548511    -0.29400
H1493       H  0.55569542  0.74898642  0.11719242     0.14800
H1494       H  0.02111787  0.76683077  0.13611308     0.15400
C1495       C  0.48735831  0.88549285  0.00586393    -0.11100
C1496       C  0.48402584  0.85864542  0.00554856    -0.12600
C1497       C  0.51239021  0.64648061  0.49977645    -0.11100
C1498       C  0.51100031  0.61959136  0.50011866    -0.12600
N1499       N  0.52681779  0.72334023  0.53401899    -0.34400
N1500       N  0.52573354  0.78879452  0.53414819    -0.54900
N1501       N  0.01804495  0.78351568  0.96758546    -0.34400
N1502       N  0.01856852  0.71809641  0.96765818    -0.54900
C1503       C  0.52886658  0.72977313  0.56830085     0.29200
C1504       C  0.98391007  0.68942468  0.52328754     0.29200
C1505       C  0.47733288  0.81072742  0.97390268     0.29200
C1506       C  0.00408315  0.77719923  0.93769045     0.29200
C1507       C  0.53972259  0.78436543  0.56401676     0.37800
C1508       C  0.52811153  0.81827295  0.52790728     0.37800
C1509       C  0.02461431  0.68894557  0.97057334     0.37800
C1510       C  0.01490912  0.72295196  0.93352313     0.37800
C1511       C  0.52149319  0.70445721  0.58739099    -0.19700
C1512       C  0.97853844  0.67497798  0.55448331    -0.19700
C1513       C  0.48341999  0.82278356  0.94147394    -0.19700
C1514       C  0.99141117  0.80279352  0.92560296    -0.19700
C1515       C  0.55131900  0.81115916  0.57678470    -0.20700
C1516       C  0.54404954  0.83268877  0.55374611    -0.20700
C1517       C  0.02477611  0.67516526  0.93819786    -0.20700
C1518       C  0.01879263  0.69673481  0.91468788    -0.20700
C1519       C  0.53769336  0.75770237  0.58271857    -0.16100
C1520       C  0.02650364  0.67415456  0.00244683    -0.16100
C1521       C  0.00491066  0.74971290  0.91958423    -0.16100
C1522       C  0.51295500  0.83240924  0.50151301    -0.14300
H1523       H  0.52069544  0.70227448  0.61534704     0.16800
H1524       H  0.97310822  0.65161169  0.55824550     0.16800
H1525       H  0.49159454  0.84510909  0.93575178     0.16800
H1526       H  0.97960950  0.80551356  0.90181099     0.16800
H1527       H  0.56276075  0.81492497  0.60090974     0.15100
H1528       H  0.54878676  0.85632455  0.55650062     0.15100
H1529       H  0.02816883  0.65189735  0.93224086     0.15100
H1530       H  0.01689989  0.69326364  0.88697149     0.15100
H1531       H  0.53346191  0.73722745  0.51364865     0.28400
H1532       H  0.03248805  0.76955829  0.97962929     0.28400
N1533       N  0.48806283  0.72077762  0.78297462    -0.34400
N1534       N  0.52963255  0.71733416  0.72461940    -0.54900
N1535       N  0.52685654  0.78238220  0.71921355    -0.34400
N1536       N  0.48519318  0.78574907  0.77706921    -0.54900
C1537       C  0.48781289  0.69079867  0.77811405     0.29200
C1538       C  0.46672495  0.72682872  0.80723847     0.29200
C1539       C  0.54773607  0.77627791  0.69456227     0.29200
C1540       C  0.52738011  0.81229646  0.72413019     0.29200
C1541       C  0.52522719  0.68776929  0.72904410     0.37800
C1542       C  0.54525135  0.72070065  0.69448050     0.37800
C1543       C  0.46746232  0.78251189  0.80559907     0.37800
C1544       C  0.48854657  0.81526769  0.77159162     0.37800
C1545       C  0.46607412  0.67781965  0.79969428    -0.19700
C1546       C  0.45285157  0.70050291  0.81802327    -0.19700
C1547       C  0.56156276  0.80250669  0.68335656    -0.19700
C1548       C  0.54888932  0.82523605  0.70216992    -0.19700
C1549       C  0.53925699  0.67223486  0.70224130    -0.20700
C1550       C  0.55164681  0.69310196  0.68014453    -0.20700
C1551       C  0.45871593  0.81016492  0.81780973    -0.20700
C1552       C  0.47183554  0.83089109  0.79606109    -0.20700
C1553       C  0.50640182  0.67457311  0.75482995    -0.16100
C1554       C  0.46050483  0.75516783  0.82191283    -0.16100
C1555       C  0.50852441  0.82845290  0.74700575    -0.16100
C1556       C  0.55201023  0.74820994  0.67852322    -0.16100
H1557       H  0.46020205  0.65439892  0.80194297     0.16800
H1558       H  0.43485217  0.69797973  0.83701766     0.16800
H1559       H  0.57867116  0.80494664  0.66322736     0.16800
H1560       H  0.55449578  0.84867708  0.69944684     0.16800
H1561       H  0.53927088  0.64839028  0.69802991     0.15100
H1562       H  0.56350070  0.68835072  0.65599306     0.15100
H1563       H  0.44471654  0.81512264  0.84027791     0.15100
H1564       H  0.47021534  0.85477638  0.79887860     0.15100
H1565       H  0.50385683  0.73600080  0.77348555     0.28400
H1566       H  0.51079979  0.76727388  0.72836053     0.28400
O1567       O  0.98704659  0.52090593  0.90798251    -0.76300
C1568       C  0.91965576  0.51320595  0.99844188     0.84800
O1569       O  0.52264348  0.57393615  0.52407033    -0.77400
O1570       O  0.98244902  0.98583266  0.59222717    -0.78900
O1571       O  0.50957602  0.92885393  0.98278340    -0.78700
O1572       O  0.51786729  0.97887362  0.91598355    -0.77300
Zn1573     Zn  0.98109433  0.52968266  0.96337452     1.55700
O1574       O  0.97611407  0.93467553  0.52543221    -0.78700
Cd1575     Cd  0.52438030  0.97208309  0.97090956     1.59700
Cd1576     Cd  0.52711071  0.52900493  0.53507553     1.59600
O1577       O  0.56969183  0.97561838  0.98089277    -0.78700
O1578       O  0.50048596  0.50114909  0.00030333    -1.89200
Cd1579     Cd  0.97302200  0.97990400  0.53739927     1.59900
O1580       O  0.57101980  0.51779683  0.52356333    -0.78600
O1581       O  0.92944304  0.99269620  0.52808534    -0.77300
C1582       C  0.48726430  0.58185805  0.00213277     0.85200
C1583       C  0.49994953  0.50086881  0.89571174     0.84900
O1584       O  0.93616948  0.52733639  0.97619952    -0.76200
C1585       C  0.50738582  0.92320722  0.50316137     0.85700
O1586       O  0.99715332  0.57174271  0.97625764    -0.76300
C1587       C  0.58350038  0.50085402  0.50098455     0.85800
C1588       C  0.49889330  0.50537035  0.60665004     0.86200
O1589       O  0.51831999  0.52173667  0.59024517    -0.78800
O1590       O  0.98226949  0.51914400  0.65834146    -0.76300
C1591       C  0.91539561  0.49900099  0.74700446     0.84800
O1592       O  0.51872701  0.56905038  0.77499516    -0.77400
O1593       O  0.98334284  0.98668156  0.84282769    -0.78900
O1594       O  0.52572591  0.93506315  0.72785898    -0.78700
O1595       O  0.52348232  0.98835111  0.66440197    -0.77300
Zn1596     Zn  0.97401633  0.52369944  0.71322664     1.55700
O1597       O  0.98003181  0.93281606  0.77768464    -0.78700
Cd1598     Cd  0.53124842  0.98064372  0.71911866     1.59700
Cd1599     Cd  0.52472698  0.52376422  0.78322768     1.59600
O1600       O  0.57497859  0.99376609  0.73090265    -0.78700
O1601       O  0.49722285  0.50091712  0.75064136    -1.89200
Cd1602     Cd  0.97646882  0.97844799  0.78780904     1.59900
O1603       O  0.56807335  0.51340679  0.76837136    -0.78600
O1604       O  0.93365914  0.99129442  0.77692789    -0.77300
C1605       C  0.50224110  0.58314971  0.75464992     0.85200
C1606       C  0.49851221  0.50379296  0.64631243     0.84900
O1607       O  0.93009720  0.51459677  0.72454790    -0.76200
C1608       C  0.51073280  0.91935987  0.74994516     0.85700
O1609       O  0.98204076  0.56676588  0.72725672    -0.76300
C1610       C  0.58665708  0.01069929  0.75413190     0.85800
C1611       C  0.50428622  0.99961658  0.86025856     0.86200
O1612       O  0.51868592  0.51551509  0.83822324    -0.78800
N1613       N  0.78573681  0.52092076  0.51953568    -0.34400
N1614       N  0.71974450  0.51815563  0.52441622    -0.54900
N1615       N  0.71906869  0.50588717  0.96916628    -0.34400
N1616       N  0.78435765  0.50050939  0.97106195    -0.54900
C1617       C  0.78112054  0.53594942  0.54975274     0.29200
C1618       C  0.81504352  0.51465882  0.51765121     0.29200
C1619       C  0.68925605  0.50595384  0.97569963     0.29200
C1620       C  0.72392079  0.48611049  0.94300125     0.29200
C1621       C  0.72546767  0.53823865  0.54983275     0.37800
C1622       C  0.68984611  0.51501135  0.52316993     0.37800
C1623       C  0.81410837  0.50260670  0.97493789     0.37800
C1624       C  0.77972739  0.48584217  0.94087019     0.37800
C1625       C  0.80803497  0.54114123  0.56587431    -0.19700
C1626       C  0.82947401  0.52802406  0.54544803    -0.19700
C1627       C  0.67517389  0.48608788  0.95320254    -0.19700
C1628       C  0.69699232  0.47358564  0.93270350    -0.19700
C1629       C  0.69909501  0.54864094  0.56406044    -0.20700
C1630       C  0.67649307  0.53402276  0.54711422    -0.20700
C1631       C  0.82849009  0.48838330  0.94743888    -0.20700
C1632       C  0.80677428  0.47800312  0.92571053    -0.20700
C1633       C  0.75326201  0.54259954  0.56536005    -0.16100
C1634       C  0.82902795  0.49563990  0.49309987    -0.16100
C1635       C  0.75162823  0.48032305  0.92618346    -0.16100
C1636       C  0.67434976  0.49529304  0.50078742    -0.16100
H1637       H  0.81167183  0.55232834  0.59054465     0.16800
H1638       H  0.85276116  0.52694786  0.55155438     0.16800
H1639       H  0.65159534  0.48091584  0.95180129     0.16800
H1640       H  0.69346674  0.45704109  0.91246284     0.16800
H1641       H  0.69653074  0.56453689  0.58518225     0.15100
H1642       H  0.65296565  0.53656928  0.55244544     0.15100
H1643       H  0.85219121  0.48644532  0.94288827     0.15100
H1644       H  0.81075162  0.46627920  0.90140900     0.15100
H1645       H  0.76978677  0.51527739  0.50143338     0.28400
H1646       H  0.73490561  0.52073455  0.97891556     0.28400
N1647       N  0.77819839  0.48982628  0.78006818    -0.34400
N1648       N  0.71285387  0.48740012  0.77692490    -0.54900
N1649       N  0.71621079  0.50245658  0.70571508    -0.34400
N1650       N  0.78156680  0.50655631  0.70846637    -0.54900
C1651       C  0.77002335  0.49290166  0.81392853     0.29200
C1652       C  0.80690267  0.49957217  0.77677201     0.29200
C1653       C  0.68667788  0.50548063  0.71190095     0.29200
C1654       C  0.72318246  0.51618981  0.67553499     0.29200
C1655       C  0.71647427  0.47799822  0.80952393     0.37800
C1656       C  0.68393759  0.48232289  0.76980541     0.37800
C1657       C  0.81047829  0.50040952  0.71289897     0.37800
C1658       C  0.77773650  0.50751618  0.67384973     0.37800
C1659       C  0.79389789  0.50466664  0.83232210    -0.19700
C1660       C  0.81730066  0.50848660  0.80890106    -0.19700
C1661       C  0.67465305  0.52114752  0.68512084    -0.19700
C1662       C  0.69770697  0.52781756  0.66209800    -0.19700
C1663       C  0.68980715  0.46642228  0.82315844    -0.20700
C1664       C  0.66913526  0.46906760  0.79785611    -0.20700
C1665       C  0.82520817  0.49785604  0.68102196    -0.20700
C1666       C  0.80442155  0.50229016  0.65621348    -0.20700
C1667       C  0.74199317  0.48434347  0.82880958    -0.16100
C1668       C  0.82394039  0.49964543  0.74550522    -0.16100
C1669       C  0.75107890  0.51514078  0.65804004    -0.16100
C1670       C  0.67028156  0.49316788  0.74024984    -0.16100
H1671       H  0.79449939  0.50999017  0.85978955     0.16800
H1672       H  0.83926490  0.51731776  0.81471575     0.16800
H1673       H  0.65163039  0.52676338  0.68217388     0.16800
H1674       H  0.69573296  0.53940137  0.63793715     0.16800
H1675       H  0.68546104  0.45809210  0.84910182     0.15100
H1676       H  0.64569356  0.46319857  0.80040397     0.15100
H1677       H  0.84851633  0.49363313  0.67618331     0.15100
H1678       H  0.80859762  0.50207226  0.62839196     0.15100
H1679       H  0.76579097  0.47910046  0.76091766     0.28400
H1680       H  0.73016074  0.48853434  0.71864107     0.28400
C1681       C  0.75134507  0.47072962  0.88924497    -0.14200
C1682       C  0.73745791  0.48748527  0.86660714    -0.29400
H1683       H  0.76480175  0.00084233  0.86785391     0.14800
H1684       H  0.72348799  0.50544463  0.87578164     0.15400
C1685       C  0.75167075  0.51784668  0.62008782    -0.14200
C1686       C  0.75230259  0.54398248  0.60369188    -0.29400
H1687       H  0.76803638  0.95954858  0.62737852     0.14800
H1688       H  0.75168782  0.56506953  0.61771984     0.15400
C1689       C  0.61132284  0.49489321  0.74243130    -0.11100
C1690       C  0.63807807  0.49390511  0.74050655    -0.12600
C1691       C  0.88325930  0.49965876  0.74728067    -0.11100
C1692       C  0.85632592  0.50001436  0.74693369    -0.12600
C1693       C  0.61535529  0.49874219  0.50082168    -0.11100
C1694       C  0.64209703  0.49686805  0.50072131    -0.12600
C1695       C  0.86127886  0.49459665  0.49302712    -0.11100
C1696       C  0.88808922  0.49435050  0.49343165    -0.12600
C1697       C  0.51099478  0.86070671  0.74665862    -0.11100
C1698       C  0.51190407  0.88754319  0.74756304    -0.12600
C1699       C  0.50330602  0.61523700  0.75567359    -0.11100
C1700       C  0.50442934  0.64216699  0.75571563    -0.12600
C1701       C  0.46568535  0.74340376  0.88263931    -0.14200
C1702       C  0.44956591  0.75637077  0.85861363    -0.29400
H1703       H  0.48413213  0.72959898  0.87451988     0.14800
H1704       H  0.95001231  0.75504251  0.89222693     0.15400
C1705       C  0.55796503  0.74779584  0.64055887    -0.14200
C1706       C  0.53838631  0.76103874  0.62069315    -0.29400
H1707       H  0.57466727  0.73356113  0.62889062     0.14800
H1708       H  0.97865063  0.74248666  0.63417709     0.15400
C1709       C  0.50983737  0.89139098  0.50267926    -0.11100
C1710       C  0.51151056  0.86462841  0.50217935    -0.12600
C1711       C  0.47801390  0.63982864  0.00326897    -0.11100
C1712       C  0.48166232  0.61327099  0.00233319    -0.12600
loop_ 
_geom_bond_atom_site_label_1 
_geom_bond_atom_site_label_2 
_geom_bond_distance 
_geom_bond_site_symmetry_2 
_ccdc_geom_bond_type 
N1           H33   1.037       .  S
N1            C5   1.348       .  A
N1          C862   1.357       .  A
N2            C9   1.349       .  A
N2           C10   1.352       .  A
N3           H34   1.038       .  S
N3            C8   1.352       .  A
N3          C863   1.355       .  A
N4           C11   1.348       .  A
N4           C12   1.343       .  A
C5           C13   1.385       .  A
C5           C21   1.412       .  A
C6          N857   1.356       .  A
C6           C14   1.388       .  A
C6          C236   1.415   1_554  A
C7          N859   1.357       .  A
C7           C15   1.386       .  A
C7          C238   1.415       .  A
C8           C23   1.415       .  A
C8           C16   1.389       .  A
C9           C21   1.411       .  A
C9           C17   1.389       .  A
C10          C24   1.407       .  A
C10          C18   1.384       .  A
C11          C19   1.387       .  A
C11          C22   1.413       .  A
C12          C20   1.387       .  A
C12          C23   1.404       .  A
C13         C870   1.378       .  A
C13          H25   1.082       .  S
C14         C869   1.376       .  A
C14          H26   1.082       .  S
C15         C872   1.373       .  A
C15          H27   1.082       .  S
C16         C871   1.369       .  A
C16          H28   1.083       .  S
C17          C18   1.369       .  A
C17          H29   1.081       .  S
C18          H30   1.083       .  S
C19          C20   1.374       .  A
C19          H31   1.082       .  S
C20          H32   1.082       .  S
C21         C208   1.480       .  S
C22         C220   1.420       .  A
C22        C1069   1.456       .  S
C23        C1059   1.470       .  S
C24         C221   1.412   1_654  A
C24         C212   1.450   1_554  S
N35          H67   1.038   1_455  S
N35          C40   1.348       .  A
N35          C39   1.352       .  A
N36          C43   1.349       .  A
N36          C44   1.345       .  A
N37          H68   1.041       .  S
N37          C42   1.357       .  A
N37          C41   1.353       .  A
N38          C45   1.350       .  A
N38          C46   1.352       .  A
C39          C47   1.386       .  A
C39          C55   1.409   1_455  A
C40          C56   1.409       .  A
C40          C48   1.388       .  A
C41          C49   1.389       .  A
C41          C58   1.420       .  A
C42          C57   1.413   1_655  A
C42          C50   1.384       .  A
C43          C55   1.406       .  A
C43          C51   1.386       .  A
C44          C58   1.405       .  A
C44          C52   1.388       .  A
C45          C53   1.388       .  A
C45          C56   1.412       .  A
C46          C54   1.384       .  A
C46          C57   1.408       .  A
C47          C48   1.373       .  A
C47          H59   1.082       .  S
C48          H60   1.079       .  S
C49          C50   1.377       .  A
C49          H61   1.080       .  S
C50          H62   1.082   1_655  S
C51          C52   1.372       .  A
C51          H63   1.083       .  S
C52          H64   1.083       .  S
C53          C54   1.372       .  A
C53          H65   1.081       .  S
C54          H66   1.082       .  S
C55         C202   1.444       .  S
C56         C204   1.468       .  S
C57         C199   1.460       .  S
C58         C207   1.473       .  S
O69         Zn75   2.148       .  S
O69         C941   1.285       .  A
C70         C412   1.444       .  S
C70          O86   1.279   1_565  A
C70         O725   1.279       .  A
O71         C298   1.280   1_455  A
O71         Cd78   2.096       .  S
O72        C1374   1.286       .  A
O72         Cd81   2.178       .  S
O73         C301   1.278       .  A
O73         Cd77   2.087       .  S
O74         C513   1.283       .  A
O74         Cd77   2.166       .  S
Zn75         O86   2.046       .  S
Zn75         O88   2.046       .  S
Zn75        O936   1.993       .  S
O76         C943   1.279   1_554  A
O76         Cd81   2.092       .  S
Cd77         O79   2.092       .  S
Cd77        O508   2.033       .  S
Cd78         O82   2.100       .  S
Cd78         O91   2.178       .  S
Cd78        O294   2.043       .  S
O79         C731   1.280       .  A
O80        Zn931   1.995   1_455  S
O80        Cd505   2.037   1_545  S
O80        Cd292   2.041       .  S
O80       Cd1579   2.040   1_445  S
Cd81         O83   2.105       .  S
Cd81       O1578   2.041       .  S
O82          C89   1.279       .  A
O83         C712   1.281       .  A
C84         C214   1.445       .  S
C84         O285   1.281       .  A
C84         O944   1.278   1_455  A
C85         O925   1.285   1_565  A
C85         O502   1.281   1_655  A
C85         C541   1.528       .  S
C87         C211   1.433       .  S
C87         O287   1.276   1_655  A
C87         O932   1.278   1_556  A
O88         C940   1.279       .  A
C89         C195   1.445       .  S
C89         O721   1.277   1_544  A
C90          O91   1.286       .  A
C90        O1356   1.282   1_445  A
C90         C108   1.530   1_545  S
O92         Zn98   2.130       .  S
O92         C964   1.283       .  A
C93         C193   1.438       .  S
C93         O109   1.276   1_565  A
C93         O534   1.277       .  A
O94         C107   1.275       .  A
O94        Cd101   2.069       .  S
O95         C969   1.284       .  A
O95        Cd104   2.171       .  S
O96         C110   1.281       .  A
O96        Cd100   2.105       .  S
O97         C536   1.284       .  A
O97        Cd100   2.171       .  S
Zn98        O109   2.029       .  S
Zn98        O111   2.027       .  S
Zn98        O959   1.987       .  S
O99         C966   1.279       .  A
O99        Cd104   2.088       .  S
Cd100       O102   2.098       .  S
Cd100       O531   2.039       .  S
Cd101       O105   2.068       .  S
Cd101       O114   2.154       .  S
Cd101       O103   2.029   1_545  S
O102        C112   1.279       .  A
O103       Zn954   1.980   1_465  S
O103       Cd528   2.030       .  S
O103      Cd1388   2.033   1_455  S
Cd104       O106   2.080       .  S
Cd104      O1387   2.036       .  S
O105        C540   1.276   1_545  A
O106        C521   1.277       .  A
C107        C201   1.428   1_455  S
C107        O967   1.273   1_455  A
C108        O948   1.281   1_465  A
C108        O525   1.283       .  A
C110        C200   1.447       .  S
C110        O955   1.280   1_455  A
O111        C963   1.277       .  A
C112        C619   1.443       .  S
C112        O533   1.277       .  A
C113        O951   1.285   1_455  A
C113        O542   1.282       .  A
C113        C513   1.529       .  S
O114        C541   1.281   1_445  A
N115        H147   1.039       .  S
N115        C120   1.354       .  A
N115        C119   1.349   1_545  A
N116        C123   1.350       .  A
N116        C124   1.353       .  A
N117        H148   1.037       .  S
N117        C122   1.350   1_565  A
N117        C121   1.356       .  A
N118        C125   1.353       .  A
N118        C126   1.350   1_565  A
C119        C127   1.389       .  A
C119        C135   1.413       .  A
C120        C136   1.411       .  A
C120        C128   1.385   1_545  A
C121        C129   1.385   1_565  A
C121        C352   1.413       .  A
C122        C137   1.414       .  A
C122        C130   1.387       .  A
C123        C135   1.414   1_545  A
C123        C131   1.389       .  A
C124        C138   1.408       .  A
C124        C132   1.384       .  A
C125        C133   1.385       .  A
C125        C350   1.408       .  A
C126        C134   1.389       .  A
C126        C137   1.414       .  A
C127        C128   1.374       .  A
C127        H139   1.078       .  S
C128        H140   1.082       .  S
C129        C130   1.372       .  A
C129        H141   1.082       .  S
C130        H142   1.075       .  S
C131        C132   1.372       .  A
C131        H143   1.081       .  S
C132        H144   1.082       .  S
C133        C134   1.371   1_565  A
C133        H145   1.082       .  S
C134        H146   1.081       .  S
C135        C188   1.471       .  S
C136        C339   1.406   1_554  A
C136        C197   1.451       .  S
C137        C183   1.473       .  S
C138        C335   1.410   1_554  A
C138        C196   1.458       .  S
N149        H181   1.034       .  S
N149        C154   1.357       .  A
N149        C153   1.351       .  A
N150        C157   1.348       .  A
N150        C158   1.351       .  A
N151        H182   1.037       .  S
N151        C156   1.351       .  A
N151        C155   1.355       .  A
N152        C159   1.350       .  A
N152        C160   1.347       .  A
C153        C161   1.388       .  A
C153        C169   1.417       .  A
C154        C170   1.417   1_545  A
C154        C162   1.387       .  A
C155        C163   1.387       .  A
C155        C172   1.412       .  A
C156        C171   1.416       .  A
C156        C164   1.388       .  A
C157        C169   1.410       .  A
C157        C165   1.386       .  A
C158        C172   1.409   1_545  A
C158        C166   1.386       .  A
C159        C167   1.386       .  A
C159        C170   1.412       .  A
C160        C168   1.386       .  A
C160        C171   1.408       .  A
C161        C162   1.371       .  A
C161        H173   1.083       .  S
C162        H174   1.082       .  S
C163        C164   1.369       .  A
C163        H175   1.082       .  S
C164        H176   1.083       .  S
C165        C166   1.370       .  A
C165        H177   1.080       .  S
C166        H178   1.082       .  S
C167        C168   1.372       .  A
C167        H179   1.082       .  S
C168        H180   1.082       .  S
C169        C184   1.479       .  S
C170        C194   1.454       .  S
C171        C187   1.477       .  S
C172        C192   1.447       .  S
C183        C184   1.342       .  D
C183        H613   1.088   1_545  S
C184        H186   1.086       .  S
H185        C611   1.086       .  S
C187        C188   1.342       .  D
C187        H617   1.086       .  S
C188        H190   1.088   1_565  S
H189        C615   1.088       .  S
C191        C540   1.430       .  S
C191        C192   1.203       .  T
C193        C194   1.208       .  T
C195        C196   1.212       .  T
C197        C198   1.207       .  T
C198        C284   1.436       .  S
C199        C200   1.213       .  T
C201        C202   1.202       .  T
C203        C879   1.475       .  S
C203        C204   1.342       .  D
C203        H205   1.086       .  S
C204       H1062   1.089       .  S
H206       C1060   1.088       .  S
C207        C208   1.339       .  D
C207        H209   1.088       .  S
C208       H1066   1.086       .  S
H210       C1064   1.087       .  S
C211        C212   1.205       .  T
C213        C878   1.460       .  S
C213        C214   1.212       .  T
N215        H247   1.034   1_655  S
N215       C1076   1.355       .  A
N215        C219   1.346       .  A
N216        C223   1.350       .  A
N216        C224   1.353       .  A
N217        H248   1.035       .  S
N217        C222   1.350       .  A
N217       C1077   1.359       .  A
N218        C225   1.354       .  A
N218        C226   1.347       .  A
C219        C227   1.386       .  A
C219        C235   1.410       .  A
C220       N1071   1.357       .  A
C220        C228   1.387       .  A
C221       N1073   1.356       .  A
C221        C229   1.386       .  A
C222        C237   1.420       .  A
C222        C230   1.390       .  A
C223        C235   1.412       .  A
C223        C231   1.387       .  A
C224        C238   1.412   1_655  A
C224        C232   1.385       .  A
C225        C233   1.385       .  A
C225        C236   1.416       .  A
C226        C234   1.387       .  A
C226        C237   1.413       .  A
C227       C1084   1.376       .  A
C227        H239   1.083       .  S
C228       C1083   1.375       .  A
C228        H240   1.082       .  S
C229       C1086   1.371       .  A
C229        H241   1.082       .  S
C230       C1085   1.372       .  A
C230        H242   1.083       .  S
C231        C232   1.370       .  A
C231        H243   1.081       .  S
C232        H244   1.082       .  S
C233        C234   1.376       .  A
C233        H245   1.082       .  S
C234        H246   1.082       .  S
C235        C422   1.477       .  S
C236       C1283   1.463       .  S
C237       C1273   1.475       .  S
C238        C426   1.456       .  S
N249        H281   1.038       .  S
N249        C254   1.348       .  A
N249        C253   1.354       .  A
N250        C257   1.352       .  A
N250        C258   1.346   1_455  A
N251        H282   1.040       .  S
N251        C256   1.357   1_655  A
N251        C255   1.350   1_655  A
N252        C259   1.350       .  A
N252        C260   1.354       .  A
C253        C261   1.384       .  A
C253        C269   1.409       .  A
C254        C270   1.413       .  A
C254        C262   1.390       .  A
C255        C263   1.389       .  A
C255        C272   1.417   1_455  A
C256        C271   1.413       .  A
C256        C264   1.384       .  A
C257        C269   1.408       .  A
C257        C265   1.385   1_455  A
C258        C272   1.409       .  A
C258        C266   1.389       .  A
C259        C267   1.390       .  A
C259        C270   1.416       .  A
C260        C268   1.383   1_455  A
C260        C271   1.408       .  A
C261        C262   1.375       .  A
C261        H273   1.082       .  S
C262        H274   1.078       .  S
C263        C264   1.377       .  A
C263        H275   1.081       .  S
C264        H276   1.082       .  S
C265        C266   1.372       .  A
C265        H277   1.082       .  S
C266        H278   1.083       .  S
C267        C268   1.373   1_455  A
C267        H279   1.081   1_455  S
C268        H280   1.082       .  S
C269        C416   1.453       .  S
C270        C418   1.471       .  S
C271        C413   1.463   1_455  S
C272        C421   1.472       .  S
O283       Zn289   2.132       .  S
O283       C1155   1.283   1_545  A
C284        O300   1.278   1_554  A
C284        O511   1.277   1_545  A
O285       Cd292   2.100       .  S
O286       C1588   1.281       .  A
O286       Cd295   2.152       .  S
O287       Cd291   2.070       .  S
O288        C727   1.282   1_455  A
O288       Cd291   2.160       .  S
Zn289       O300   2.038       .  S
Zn289       O302   2.037       .  S
Zn289      O1150   1.989   1_556  S
O290       C1157   1.275       .  A
O290       Cd295   2.071       .  S
Cd291       O293   2.093       .  S
Cd291       O722   2.038       .  S
Cd292       O296   2.099       .  S
Cd292       O305   2.179       .  S
O293        C517   1.278       .  A
O294      Zn1145   1.997   1_454  S
O294       Cd719   2.041   1_544  S
O294      Cd1365   2.040   1_445  S
Cd295       O297   2.078       .  S
Cd295      O1364   2.034       .  S
O296        C303   1.279   1_545  A
O297        C498   1.277       .  A
C298        C428   1.453       .  S
C298       O1158   1.282   1_554  A
C299       O1139   1.287   1_455  A
C299        O716   1.283   1_545  A
C299        C755   1.534   1_545  S
C301        C425   1.440       .  S
C301       O1146   1.277   1_455  A
O302       C1154   1.277   1_556  A
C303        C409   1.446       .  S
C303        O507   1.278       .  A
C304       O1570   1.285   1_445  A
C304        O305   1.286       .  A
C304        C322   1.537       .  S
O306       Zn312   2.134       .  S
O306       C1178   1.283       .  A
C307        C407   1.438       .  S
C307        O323   1.276   1_565  A
C307        O748   1.278       .  A
O308        C321   1.278       .  A
O308       Cd315   2.088       .  S
O309       C1183   1.286       .  A
O309       Cd318   2.179       .  S
O310        C324   1.278   1_455  A
O310       Cd314   2.088       .  S
O311        C750   1.283   1_455  A
O311       Cd314   2.162       .  S
Zn312       O323   2.028       .  S
Zn312       O325   2.025       .  S
Zn312      O1173   1.987       .  S
O313       C1180   1.280       .  A
O313       Cd318   2.102       .  S
Cd314       O316   2.088       .  S
Cd314       O745   2.040   1_455  S
Cd315       O319   2.084       .  S
Cd315       O328   2.172       .  S
Cd315       O317   2.038   1_545  S
O316        C326   1.278       .  A
O317      Zn1168   1.989   1_465  S
O317       Cd742   2.039       .  S
O317      Cd1602   2.039   1_455  S
Cd318       O320   2.087       .  S
Cd318      O1601   2.039       .  S
O319        C754   1.278   1_545  A
O320        C735   1.278       .  A
C321        C415   1.438       .  S
C321       O1181   1.277   1_455  A
C322       O1162   1.284   1_455  A
C322        O739   1.285   1_545  A
C324        C414   1.450       .  S
C324       O1169   1.282       .  A
O325       C1177   1.276       .  A
C326        C833   1.442       .  S
C326        O747   1.280       .  A
C327       O1165   1.288       .  A
C327        O756   1.284   1_655  A
C327        C727   1.540       .  S
O328        C755   1.284   1_545  A
N329        H361   1.040       .  S
N329        C334   1.358       .  A
N329        C333   1.353       .  A
N330        C337   1.348       .  A
N330        C338   1.353       .  A
N331        H362   1.041       .  S
N331        C336   1.352       .  A
N331        C335   1.356       .  A
N332        C339   1.350       .  A
N332        C340   1.345       .  A
C333        C341   1.391       .  A
C333        C349   1.422       .  A
C334        C350   1.413       .  A
C334        C342   1.384       .  A
C335        C343   1.383       .  A
C336        C351   1.418       .  A
C336        C344   1.390       .  A
C337        C349   1.412       .  A
C337        C345   1.389       .  A
C338        C352   1.411       .  A
C338        C346   1.384       .  A
C339        C347   1.385       .  A
C340        C348   1.388       .  A
C340        C351   1.406       .  A
C341        C342   1.375       .  A
C341        H353   1.081       .  S
C342        H354   1.082       .  S
C343        C344   1.374       .  A
C343        H355   1.082       .  S
C344        H356   1.080       .  S
C345        C346   1.373       .  A
C345        H357   1.083       .  S
C346        H358   1.082       .  S
C347        C348   1.372       .  A
C347        H359   1.082       .  S
C348        H360   1.082       .  S
C349        C402   1.477       .  S
C350        C411   1.458       .  S
C351        C397   1.472       .  S
C352        C410   1.460       .  S
N363        H395   1.036   1_545  S
N363        C368   1.357       .  A
N363        C367   1.352       .  A
N364        C371   1.348       .  A
N364        C372   1.351       .  A
N365        H396   1.038       .  S
N365        C370   1.350       .  A
N365        C369   1.357       .  A
N366        C373   1.350       .  A
N366        C374   1.349       .  A
C367        C375   1.387       .  A
C367        C383   1.418       .  A
C368        C384   1.417   1_545  A
C368        C376   1.388       .  A
C369        C377   1.388       .  A
C369        C386   1.417       .  A
C370        C385   1.414       .  A
C370        C378   1.385       .  A
C371        C383   1.413       .  A
C371        C379   1.388       .  A
C372        C386   1.413   1_545  A
C372        C380   1.386       .  A
C373        C381   1.387       .  A
C373        C384   1.413       .  A
C374        C382   1.387       .  A
C374        C385   1.411       .  A
C375        C376   1.371       .  A
C375        H387   1.082       .  S
C376        H388   1.082       .  S
C377        C378   1.375       .  A
C377        H389   1.082       .  S
C378        H390   1.083       .  S
C379        C380   1.372       .  A
C379        H391   1.081       .  S
C380        H392   1.082       .  S
C381        C382   1.373       .  A
C381        H393   1.082       .  S
C382        H394   1.081       .  S
C383        C398   1.483       .  S
C384        C408   1.455       .  S
C385        C401   1.486       .  S
C386        C406   1.458       .  S
C397        C398   1.339       .  D
C397        H827   1.088       .  S
C398        H400   1.086       .  S
H399        C825   1.085       .  S
C401        C402   1.342       .  D
C401        H831   1.085       .  S
C402        H404   1.087       .  S
H403        C829   1.089       .  S
C405        C754   1.443       .  S
C405        C406   1.211       .  T
C407        C408   1.208       .  T
C409        C410   1.212       .  T
C411        C412   1.211       .  T
C413        C414   1.215       .  T
C415        C416   1.208       .  T
C417       C1093   1.475       .  S
C417        C418   1.340       .  D
C417        H419   1.086       .  S
C418       H1276   1.089   1_455  S
H420       C1274   1.089       .  S
C421        C422   1.342       .  D
C421        H423   1.088   1_655  S
C422       H1280   1.086       .  S
H424       C1278   1.086       .  S
C425        C426   1.209       .  T
C427       C1092   1.466       .  S
C427        C428   1.216       .  T
N429        H461   1.041       .  S
N429       C1290   1.358       .  A
N429        C433   1.352       .  A
N430        C437   1.346       .  A
N430        C438   1.353       .  A
N431        H462   1.040       .  S
N431        C436   1.346       .  A
N431       C1291   1.353       .  A
N432        C439   1.352       .  A
N432        C440   1.350       .  A
C433        C441   1.390       .  A
C433        C449   1.419       .  A
C434       N1285   1.355       .  A
C434        C664   1.413       .  A
C434        C442   1.386       .  A
C435       N1287   1.353       .  A
C435        C443   1.386       .  A
C435        C666   1.410       .  A
C436        C451   1.404       .  A
C436        C444   1.386       .  A
C437        C449   1.408       .  A
C437        C445   1.388       .  A
C438        C452   1.409       .  A
C438        C446   1.384       .  A
C439        C447   1.384       .  A
C439        C450   1.407       .  A
C440        C448   1.387       .  A
C440        C451   1.412       .  A
C441       C1298   1.378       .  A
C441        H453   1.081       .  S
C442       C1297   1.374       .  A
C442        H454   1.082       .  S
C443       C1300   1.376       .  A
C443        H455   1.082       .  S
C444       C1299   1.375       .  A
C444        H456   1.080       .  S
C445        C446   1.372       .  A
C445        H457   1.079       .  S
C446        H458   1.082       .  S
C447        C448   1.374       .  A
C447        H459   1.082       .  S
C448        H460   1.080       .  S
C449        C636   1.471       .  S
C450        C648   1.410       .  A
C450       C1497   1.454       .  S
C451       C1487   1.468       .  S
C452        C649   1.411   1_554  A
C452        C640   1.456       .  S
N463        H495   1.037       .  S
N463        C468   1.354       .  A
N463        C467   1.356       .  A
N464        C471   1.351       .  A
N464        C472   1.349       .  A
N465        H496   1.033       .  S
N465        C470   1.358       .  A
N465        C469   1.351       .  A
N466        C473   1.347       .  A
N466        C474   1.351       .  A
C467        C475   1.386       .  A
C467        C483   1.415       .  A
C468        C484   1.417       .  A
C468        C476   1.389       .  A
C469        C477   1.387       .  A
C469        C486   1.421       .  A
C470        C485   1.419       .  A
C470        C478   1.386       .  A
C471        C483   1.411   1_455  A
C471        C479   1.386       .  A
C472        C486   1.412       .  A
C472        C480   1.388       .  A
C473        C481   1.387       .  A
C473        C484   1.414       .  A
C474        C482   1.386       .  A
C474        C485   1.413   1_655  A
C475        C476   1.371       .  A
C475        H487   1.082       .  S
C476        H488   1.081       .  S
C477        C478   1.373       .  A
C477        H489   1.080       .  S
C478        H490   1.082       .  S
C479        C480   1.369       .  A
C479        H491   1.082       .  S
C480        H492   1.082       .  S
C481        C482   1.372       .  A
C481        H493   1.082       .  S
C482        H494   1.082       .  S
C483        C630   1.452       .  S
C484        C632   1.485       .  S
C485        C627   1.458       .  S
C486        C635   1.482       .  S
O497       Zn503   2.151       .  S
O497       C1369   1.286       .  A
C498        C840   1.440       .  S
C498        O514   1.278       .  A
O499        C726   1.279   1_554  A
O499       Cd506   2.087       .  S
O500        C946   1.283   1_565  A
O500       Cd509   2.162       .  S
O501        C729   1.276   1_455  A
O501       Cd505   2.073       .  S
O502       Cd505   2.153       .  S
Zn503       O514   2.045       .  S
Zn503       O516   2.038       .  S
Zn503      O1364   1.988       .  S
O504       C1371   1.278       .  A
O504       Cd509   2.095       .  S
Cd505       O507   2.089       .  S
Cd506       O510   2.088       .  S
Cd506       O519   2.175       .  S
Cd506       O722   2.039   1_554  S
O508      Zn1359   1.985   1_455  S
O508       Cd720   2.037       .  S
O508      Cd1151   2.031   1_455  S
Cd509       O511   2.075       .  S
Cd509      O1150   2.037   1_565  S
O510        C517   1.278   1_554  A
C512        C642   1.440       .  S
C512        O713   1.278   1_655  A
C512       O1372   1.277       .  A
C513       O1353   1.282   1_455  A
C515        C639   1.442       .  S
C515        O715   1.278   1_554  A
C515       O1360   1.277   1_455  A
O516       C1368   1.278       .  A
C517        C623   1.445       .  S
C518        O928   1.283   1_455  A
C518        O519   1.284       .  A
C518        C536   1.533       .  S
O520       Zn526   2.130       .  S
O520       C1392   1.282       .  A
C521        C621   1.435       .  S
C521        O537   1.276       .  A
O522        C535   1.276   1_455  A
O522       Cd529   2.073       .  S
O523       C1397   1.284   1_565  A
O523       Cd532   2.170       .  S
O524        C538   1.278       .  A
O524       Cd528   2.090       .  S
O525       Cd528   2.170       .  S
Zn526       O537   2.024       .  S
Zn526       O539   2.015       .  S
Zn526      O1387   1.985       .  S
O527       C1394   1.278       .  A
O527       Cd532   2.085       .  S
Cd528       O530   2.074       .  S
Cd529       O533   2.082       .  S
Cd529       O542   2.156       .  S
Cd529       O531   2.034       .  S
O530        C540   1.277       .  A
O531      Zn1382   1.989   1_455  S
O531       Cd960   2.038   1_455  S
Cd532       O534   2.084       .  S
Cd532       O959   2.038   1_565  S
C535        C629   1.435       .  S
C535       O1395   1.277       .  A
C536       O1376   1.284   1_455  A
C538        C628   1.443       .  S
C538       O1383   1.278   1_455  A
O539       C1391   1.275       .  A
C541       O1379   1.284       .  A
N543        H575   1.038       .  S
N543        C548   1.358       .  A
N543        C547   1.351       .  A
N544        C551   1.345       .  A
N544        C552   1.350       .  A
N545        H576   1.036       .  S
N545        C550   1.350       .  A
N545        C549   1.356       .  A
N546        C553   1.351       .  A
N546        C554   1.347       .  A
C547        C555   1.386       .  A
C547        C563   1.415       .  A
C548        C564   1.415   1_554  A
C548        C556   1.387       .  A
C549        C557   1.387       .  A
C549        C780   1.413       .  A
C550        C565   1.414       .  A
C550        C558   1.388       .  A
C551        C563   1.408       .  A
C551        C559   1.389       .  A
C552        C566   1.410   1_554  A
C552        C560   1.386       .  A
C553        C561   1.386       .  A
C553        C778   1.411       .  A
C554        C562   1.386       .  A
C554        C565   1.408       .  A
C555        C556   1.369       .  A
C555        H567   1.082       .  S
C556        H568   1.082       .  S
C557        C558   1.369       .  A
C557        H569   1.082       .  S
C558        H570   1.083       .  S
C559        C560   1.371       .  A
C559        H571   1.081       .  S
C560        H572   1.082       .  S
C561        C562   1.371       .  A
C561        H573   1.082       .  S
C562        H574   1.082       .  S
C563        C616   1.473       .  S
C564        C767   1.413       .  A
C564        C625   1.460       .  S
C565        C611   1.474       .  S
C566        C763   1.417       .  A
C566        C624   1.460       .  S
N577        H609   1.037       .  S
N577        C582   1.355       .  A
N577        C581   1.348       .  A
N578        C585   1.348       .  A
N578        C586   1.353       .  A
N579        H610   1.041       .  S
N579        C584   1.349       .  A
N579        C583   1.355       .  A
N580        C587   1.349       .  A
N580        C588   1.343       .  A
C581        C589   1.389       .  A
C581        C597   1.415       .  A
C582        C598   1.410       .  A
C582        C590   1.383       .  A
C583        C591   1.384       .  A
C583        C600   1.408       .  A
C584        C599   1.413       .  A
C584        C592   1.390       .  A
C585        C597   1.414       .  A
C585        C593   1.390       .  A
C586        C600   1.408       .  A
C586        C594   1.384       .  A
C587        C595   1.385       .  A
C587        C598   1.404       .  A
C588        C596   1.388       .  A
C588        C599   1.403       .  A
C589        C590   1.372       .  A
C589        H601   1.076       .  S
C590        H602   1.082       .  S
C591        C592   1.374       .  A
C591        H603   1.082       .  S
C592        H604   1.082       .  S
C593        C594   1.373       .  A
C593        H605   1.082       .  S
C594        H606   1.082       .  S
C595        C596   1.371       .  A
C595        H607   1.082       .  S
C596        H608   1.081       .  S
C597        C612   1.467       .  S
C598        C622   1.450       .  S
C599        C615   1.462       .  S
C600        C620   1.457       .  S
C611        C612   1.342       .  D
C612        H614   1.088       .  S
C615        C616   1.336       .  D
C616        H618   1.086       .  S
C619        C620   1.211       .  T
C621        C622   1.206       .  T
C623        C624   1.212       .  T
C625        C626   1.212   1_556  T
C626        C712   1.444       .  S
C627        C628   1.211       .  T
C629        C630   1.206       .  T
C631       C1307   1.469       .  S
C631        C632   1.341       .  D
C631        H633   1.087       .  S
C632       H1490   1.086       .  S
H634       C1488   1.086       .  S
C635        C636   1.339       .  D
C635        H637   1.086       .  S
C636       H1494   1.088       .  S
H638       C1492   1.088       .  S
C639        C640   1.210       .  T
C641       C1306   1.453       .  S
C641        C642   1.209       .  T
N643        H675   1.040       .  S
N643       C1504   1.353       .  A
N643        C647   1.350       .  A
N644        C651   1.346   1_655  A
N644        C652   1.350       .  A
N645        H676   1.040       .  S
N645        C650   1.354       .  A
N645       C1505   1.357       .  A
N646        C653   1.352       .  A
N646        C654   1.346       .  A
C647        C655   1.391       .  A
C647        C663   1.414       .  A
C648       N1499   1.355       .  A
C648        C656   1.385       .  A
C649       N1501   1.354       .  A
C649        C657   1.385   1_455  A
C650        C665   1.420       .  A
C650        C658   1.390       .  A
C651        C663   1.410   1_455  A
C651        C659   1.389       .  A
C652        C666   1.407       .  A
C652        C660   1.384   1_655  A
C653        C661   1.385       .  A
C653        C664   1.409   1_556  A
C654        C662   1.388       .  A
C654        C665   1.408       .  A
C655       C1512   1.375       .  A
C655        H667   1.081       .  S
C656       C1511   1.376       .  A
C656        H668   1.082       .  S
C657       C1514   1.373       .  A
C657        H669   1.082       .  S
C658       C1513   1.376       .  A
C658        H670   1.081       .  S
C659        C660   1.372       .  A
C659        H671   1.079       .  S
C660        H672   1.082       .  S
C661        C662   1.372       .  A
C661        H673   1.082       .  S
C662        H674   1.081       .  S
C663        C850   1.467       .  S
C664       C1711   1.456       .  S
C665       C1701   1.475       .  S
C666        C854   1.451       .  S
N677        H709   1.036       .  S
N677        C682   1.350       .  A
N677        C681   1.356       .  A
N678        C685   1.353       .  A
N678        C686   1.349       .  A
N679        H710   1.036   1_455  S
N679        C684   1.355       .  A
N679        C683   1.347       .  A
N680        C687   1.345       .  A
N680        C688   1.352       .  A
C681        C689   1.385       .  A
C681        C697   1.412       .  A
C682        C698   1.418       .  A
C682        C690   1.389       .  A
C683        C691   1.386       .  A
C683        C700   1.407       .  A
C684        C699   1.416   1_455  A
C684        C692   1.388       .  A
C685        C697   1.407   1_455  A
C685        C693   1.385       .  A
C686        C700   1.412       .  A
C686        C694   1.387       .  A
C687        C695   1.387       .  A
C687        C698   1.408       .  A
C688        C696   1.386       .  A
C688        C699   1.413       .  A
C689        C690   1.372       .  A
C689        H701   1.082       .  S
C690        H702   1.082       .  S
C691        C692   1.376       .  A
C691        H703   1.082       .  S
C692        H704   1.082       .  S
C693        C694   1.368       .  A
C693        H705   1.082       .  S
C694        H706   1.082       .  S
C695        C696   1.375       .  A
C695        H707   1.082       .  S
C696        H708   1.082       .  S
C697        C844   1.452       .  S
C698        C846   1.473       .  S
C699        C841   1.458       .  S
C700        C849   1.470       .  S
O711       Zn717   2.135       .  S
O711       C1583   1.283       .  A
C712        O728   1.276   1_554  A
O713       Cd720   2.083       .  S
O714       C1160   1.284   1_565  A
O714       Cd723   2.171       .  S
O715       Cd719   2.090       .  S
O716       Cd719   2.161       .  S
Zn717       O728   2.024       .  S
Zn717       O730   2.046       .  S
Zn717      O1578   1.990   1_556  S
O718       C1585   1.278       .  A
O718       Cd723   2.086       .  S
Cd719       O721   2.084       .  S
Cd720       O724   2.078       .  S
Cd720       O733   2.170       .  S
O722      Zn1573   1.997   1_455  S
O722       Cd937   2.040   1_456  S
Cd723       O725   2.090       .  S
Cd723       O936   2.035   1_565  S
O724        C731   1.277       .  A
C726        C856   1.447   1_556  S
C726       O1586   1.283   1_455  A
C727       O1567   1.289       .  A
C729        C853   1.437       .  S
C729       O1574   1.278       .  A
O730       C1582   1.279   1_556  A
C731        C837   1.438       .  S
C732       O1142   1.284       .  A
C732        O733   1.284   1_655  A
C732        C750   1.532       .  S
O734       Zn740   2.135       .  S
O734       C1606   1.283       .  A
C735        C835   1.439       .  S
C735        O751   1.278       .  A
O736        C749   1.276   1_455  A
O736       Cd743   2.080       .  S
O737       C1611   1.284       .  A
O737       Cd746   2.171       .  S
O738        C752   1.279   1_455  A
O738       Cd742   2.091       .  S
O739       Cd742   2.179       .  S
Zn740       O751   2.034       .  S
Zn740       O753   2.036       .  S
Zn740      O1601   1.988       .  S
O741       C1608   1.276       .  A
O741       Cd746   2.070       .  S
Cd742       O744   2.097       .  S
Cd743       O747   2.095       .  S
Cd743       O756   2.170       .  S
Cd743       O745   2.041   1_455  S
O744        C754   1.279       .  A
O745      Zn1596   1.993       .  S
O745      Cd1174   2.043       .  S
Cd746       O748   2.086       .  S
Cd746      O1173   2.036   1_565  S
C749        C843   1.437       .  S
C749       O1609   1.276       .  A
C750       O1590   1.285       .  A
C752        C842   1.443       .  S
C752       O1597   1.279       .  A
O753       C1605   1.277       .  A
C755       O1593   1.284   1_455  A
N757        H789   1.036       .  S
N757        C762   1.359       .  A
N757        C761   1.351       .  A
N758        C765   1.348       .  A
N758        C766   1.352       .  A
N759        H790   1.037       .  S
N759        C764   1.349       .  A
N759        C763   1.359       .  A
N760        C767   1.353       .  A
N760        C768   1.349       .  A
C761        C769   1.388       .  A
C761        C777   1.418       .  A
C762        C778   1.416       .  A
C762        C770   1.386       .  A
C763        C771   1.386       .  A
C764        C779   1.416       .  A
C764        C772   1.387       .  A
C765        C777   1.411       .  A
C765        C773   1.387       .  A
C766        C780   1.412       .  A
C766        C774   1.385       .  A
C767        C775   1.385       .  A
C768        C776   1.389       .  A
C768        C779   1.415       .  A
C769        C770   1.371       .  A
C769        H781   1.083       .  S
C770        H782   1.082       .  S
C771        C772   1.375       .  A
C771        H783   1.082       .  S
C772        H784   1.082       .  S
C773        C774   1.373       .  A
C773        H785   1.082       .  S
C774        H786   1.082       .  S
C775        C776   1.374       .  A
C775        H787   1.082       .  S
C776        H788   1.081       .  S
C777        C830   1.479       .  S
C778        C839   1.456       .  S
C779        C825   1.484       .  S
C780        C838   1.453       .  S
N791        H823   1.040       .  S
N791        C796   1.354       .  A
N791        C795   1.351       .  A
N792        C799   1.347       .  A
N792        C800   1.352       .  A
N793        H824   1.038       .  S
N793        C798   1.350       .  A
N793        C797   1.355       .  A
N794        C801   1.353       .  A
N794        C802   1.350       .  A
C795        C803   1.390       .  A
C795        C811   1.417       .  A
C796        C812   1.409       .  A
C796        C804   1.384       .  A
C797        C805   1.385       .  A
C797        C814   1.414       .  A
C798        C813   1.414       .  A
C798        C806   1.388       .  A
C799        C811   1.409       .  A
C799        C807   1.387       .  A
C800        C814   1.410       .  A
C800        C808   1.386       .  A
C801        C809   1.384       .  A
C801        C812   1.408       .  A
C802        C810   1.390       .  A
C802        C813   1.414       .  A
C803        C804   1.374       .  A
C803        H815   1.081       .  S
C804        H816   1.082       .  S
C805        C806   1.375       .  A
C805        H817   1.082       .  S
C806        H818   1.078       .  S
C807        C808   1.372       .  A
C807        H819   1.082       .  S
C808        H820   1.082       .  S
C809        C810   1.373       .  A
C809        H821   1.082       .  S
C810        H822   1.082       .  S
C811        C826   1.473       .  S
C812        C836   1.453       .  S
C813        C829   1.472       .  S
C814        C834   1.456       .  S
C825        C826   1.342       .  D
C826        H828   1.087       .  S
C829        C830   1.343       .  D
C830        H832   1.086       .  S
C833        C834   1.210       .  T
C835        C836   1.208       .  T
C837        C838   1.208       .  T
C839        C840   1.209       .  T
C841        C842   1.211       .  T
C843        C844   1.207       .  T
C845       C1521   1.468   1_655  S
C845        C846   1.341       .  D
C845        H847   1.088   1_655  S
C846       H1704   1.086       .  S
H848       C1702   1.086       .  S
C849        C850   1.338   1_455  D
C849        H851   1.086       .  S
C850       H1708   1.088       .  S
H852       C1706   1.088       .  S
C853        C854   1.207       .  T
C855       C1520   1.460       .  S
C855        C856   1.213       .  T
N857        H889   1.036       .  S
N857        C861   1.347       .  A
N858        C865   1.348       .  A
N858        C866   1.352       .  A
N859        H890   1.032       .  S
N859        C864   1.350       .  A
N860        C867   1.352       .  A
N860        C868   1.346       .  A
C861        C869   1.386       .  A
C861        C877   1.409       .  A
C862       C1092   1.418       .  A
C862        C870   1.387       .  A
C863        C871   1.386       .  A
C863       C1094   1.409       .  A
C864        C879   1.420       .  A
C864        C872   1.389       .  A
C865        C877   1.407       .  A
C865        C873   1.387       .  A
C866        C880   1.407   1_554  A
C866        C874   1.386       .  A
C867        C875   1.386       .  A
C867        C878   1.415       .  A
C868        C876   1.387       .  A
C868        C879   1.411       .  A
C869        H881   1.082       .  S
C870        H882   1.082       .  S
C871        H883   1.082       .  S
C872        H884   1.083       .  S
C873        C874   1.367       .  A
C873        H885   1.082       .  S
C874        H886   1.082       .  S
C875        C876   1.376       .  A
C875        H887   1.082       .  S
C876        H888   1.082       .  S
C877       C1064   1.465       .  S
C878       C1076   1.417   1_455  A
C880       C1077   1.415       .  A
C880       C1068   1.455       .  S
N891        H923   1.038       .  S
N891        C896   1.348       .  A
N891        C895   1.354       .  A
N892        C899   1.349       .  A
N892        C900   1.344       .  A
N893        H924   1.040       .  S
N893        C898   1.354       .  A
N893        C897   1.348       .  A
N894        C901   1.346       .  A
N894        C902   1.351       .  A
C895        C903   1.384       .  A
C895        C911   1.408       .  A
C896        C912   1.412       .  A
C896        C904   1.390       .  A
C897        C905   1.389       .  A
C897        C914   1.411       .  A
C898        C913   1.409       .  A
C898        C906   1.386       .  A
C899        C911   1.404       .  A
C899        C907   1.385       .  A
C900        C914   1.403       .  A
C900        C908   1.388       .  A
C901        C909   1.389       .  A
C901        C912   1.409       .  A
C902        C910   1.385       .  A
C902        C913   1.407       .  A
C903        C904   1.373       .  A
C903        H915   1.082       .  S
C904        H916   1.080       .  S
C905        C906   1.376       .  A
C905        H917   1.082       .  S
C906        H918   1.082       .  S
C907        C908   1.370       .  A
C907        H919   1.082       .  S
C908        H920   1.082       .  S
C909        C910   1.373       .  A
C909        H921   1.082       .  S
C910        H922   1.082       .  S
C911       C1058   1.447       .  S
C912       C1060   1.464       .  S
C913       C1055   1.452       .  S
C914       C1063   1.460       .  S
O925       Zn931   2.142       .  S
C926       C1268   1.448       .  S
C926        O942   1.279       .  A
C926       O1581   1.280   1_545  A
O927       C1154   1.281       .  A
O927       Cd934   2.109       .  S
O928       Cd937   2.166       .  S
O929       C1157   1.277       .  A
O929       Cd933   2.076       .  S
O930       C1369   1.282       .  A
O930       Cd933   2.162       .  S
Zn931       O942   2.048       .  S
Zn931       O944   2.040       .  S
O932       Cd937   2.082       .  S
Cd933       O935   2.081       .  S
Cd933      O1364   2.033       .  S
Cd934       O938   2.082       .  S
Cd934       O947   2.177       .  S
Cd934      O1150   2.040       .  S
O935       C1587   1.277       .  A
O936      Cd1361   2.033   1_545  S
O936      Cd1148   2.037       .  S
Cd937       O939   2.076       .  S
O938        C945   1.278   1_545  A
O939       C1568   1.276   1_554  A
C940       C1070   1.441       .  S
C940       O1141   1.278       .  A
C941       O1358   1.280   1_545  A
C941       C1397   1.528       .  S
C943       C1067   1.440       .  S
C943       O1143   1.276       .  A
C945       C1051   1.438       .  S
C945       O1577   1.279   1_554  A
C946        O947   1.285       .  A
C946        C964   1.531       .  S
O948       Zn954   2.125       .  S
C949       C1049   1.428       .  S
C949        O965   1.275   1_565  A
C949       O1390   1.277       .  A
O950        C963   1.276       .  A
O950       Cd957   2.072       .  S
O951       Cd960   2.175       .  S
O952        C966   1.277       .  A
O952       Cd956   2.080       .  S
O953       C1392   1.283       .  A
O953       Cd956   2.171       .  S
Zn954       O965   2.012       .  S
Zn954       O967   2.010       .  S
O955       Cd960   2.093       .  S
Cd956       O958   2.090       .  S
Cd956      O1387   2.036       .  S
Cd957       O961   2.092       .  S
Cd957       O970   2.158       .  S
Cd957       O959   2.034       .  S
O958        C968   1.279       .  A
O959      Cd1384   2.035   1_545  S
Cd960       O962   2.089       .  S
O961       C1396   1.279       .  A
O962       C1377   1.277       .  A
C963       C1057   1.432       .  S
C964       O1381   1.284   1_545  A
C966       C1056   1.438       .  S
C968       C1475   1.441       .  S
C968       O1389   1.279       .  A
C969       O1398   1.284       .  A
C969       C1369   1.534       .  S
O970       C1397   1.282       .  A
N971       H1003   1.040       .  S
N971        C976   1.359       .  A
N971        C975   1.354       .  A
N972        C979   1.345       .  A
N972        C980   1.351       .  A
N973       H1004   1.038       .  S
N973        C978   1.348       .  A
N973        C977   1.354       .  A
N974        C981   1.355       .  A
N974        C982   1.350       .  A
C975        C983   1.389       .  A
C975        C991   1.422       .  A
C976        C992   1.416       .  A
C976        C984   1.384       .  A
C977        C985   1.385       .  A
C977       C1208   1.411       .  A
C978        C993   1.411       .  A
C978        C986   1.389       .  A
C979        C991   1.406       .  A
C979        C987   1.388       .  A
C980        C994   1.407       .  A
C980        C988   1.385       .  A
C981        C989   1.383       .  A
C981       C1206   1.409       .  A
C982        C990   1.389       .  A
C982        C993   1.415       .  A
C983        C984   1.376       .  A
C983        H995   1.079       .  S
C984        H996   1.082       .  S
C985        C986   1.376       .  A
C985        H997   1.082       .  S
C986        H998   1.080       .  S
C987        C988   1.372       .  A
C987        H999   1.082       .  S
C988       H1000   1.082       .  S
C989        C990   1.372       .  A
C989       H1001   1.082       .  S
C990       H1002   1.080       .  S
C991       C1044   1.473       .  S
C992       C1195   1.411   1_554  A
C992       C1053   1.466       .  S
C993       C1039   1.469       .  S
C994       C1191   1.410   1_554  A
C994       C1052   1.453       .  S
N1005      H1037   1.034       .  S
N1005      C1010   1.354       .  A
N1005      C1009   1.352       .  A
N1006      C1013   1.347       .  A
N1006      C1014   1.351       .  A
N1007      H1038   1.028       .  S
N1007      C1012   1.349       .  A
N1007      C1011   1.355       .  A
N1008      C1015   1.351       .  A
N1008      C1016   1.350       .  A
C1009      C1017   1.388       .  A
C1009      C1025   1.418       .  A
C1010      C1026   1.412   1_545  A
C1010      C1018   1.386       .  A
C1011      C1019   1.389       .  A
C1011      C1028   1.422   1_565  A
C1012      C1027   1.418       .  A
C1012      C1020   1.386       .  A
C1013      C1025   1.409       .  A
C1013      C1021   1.386       .  A
C1014      C1028   1.417       .  A
C1014      C1022   1.387       .  A
C1015      C1023   1.386       .  A
C1015      C1026   1.408       .  A
C1016      C1024   1.388       .  A
C1016      C1027   1.413       .  A
C1017      C1018   1.370       .  A
C1017      H1029   1.082       .  S
C1018      H1030   1.082       .  S
C1019      C1020   1.378       .  A
C1019      H1031   1.082       .  S
C1020      H1032   1.082       .  S
C1021      C1022   1.375       .  A
C1021      H1033   1.082       .  S
C1022      H1034   1.082       .  S
C1023      C1024   1.368       .  A
C1023      H1035   1.082       .  S
C1024      H1036   1.082       .  S
C1025      C1040   1.477       .  S
C1026      C1050   1.445       .  S
C1027      C1043   1.480       .  S
C1028      C1048   1.458       .  S
C1039      C1040   1.341       .  D
C1039      H1469   1.089       .  S
C1040      H1042   1.086       .  S
H1041      C1467   1.086       .  S
C1043      C1044   1.338       .  D
C1043      H1473   1.086       .  S
C1044      H1046   1.088       .  S
H1045      C1471   1.088       .  S
C1047      C1396   1.444       .  S
C1047      C1048   1.211       .  T
C1049      C1050   1.202       .  T
C1051      C1052   1.208       .  T
C1053      C1054   1.217       .  T
C1054      C1140   1.453       .  S
C1055      C1056   1.208       .  T
C1057      C1058   1.204       .  T
C1059      C1060   1.342       .  D
C1059      H1061   1.086       .  S
C1063      C1064   1.335       .  D
C1063      H1065   1.088       .  S
C1067      C1068   1.209       .  T
C1069      C1070   1.210       .  T
N1071      H1103   1.029       .  S
N1071      C1075   1.348       .  A
N1072      C1079   1.350       .  A
N1072      C1080   1.352       .  A
N1073      H1104   1.034       .  S
N1073      C1078   1.350       .  A
N1074      C1081   1.353       .  A
N1074      C1082   1.347       .  A
C1075      C1083   1.388       .  A
C1075      C1091   1.421       .  A
C1076      C1084   1.388       .  A
C1077      C1085   1.385       .  A
C1078      C1093   1.418       .  A
C1078      C1086   1.390       .  A
C1079      C1091   1.417       .  A
C1079      C1087   1.390       .  A
C1080      C1094   1.408       .  A
C1080      C1088   1.384       .  A
C1081      C1089   1.385       .  A
C1081      C1092   1.415   1_456  A
C1082      C1090   1.387       .  A
C1082      C1093   1.412       .  A
C1083      H1095   1.082       .  S
C1084      H1096   1.082       .  S
C1085      H1097   1.082       .  S
C1086      H1098   1.082       .  S
C1087      C1088   1.370       .  A
C1087      H1099   1.081       .  S
C1088      H1100   1.082       .  S
C1089      C1090   1.376       .  A
C1089      H1101   1.082       .  S
C1090      H1102   1.081       .  S
C1091      C1278   1.482       .  S
C1094      C1282   1.449       .  S
N1105      H1137   1.039       .  S
N1105      C1110   1.349       .  A
N1105      C1109   1.353       .  A
N1106      C1113   1.350       .  A
N1106      C1114   1.345       .  A
N1107      H1138   1.041       .  S
N1107      C1112   1.356       .  A
N1107      C1111   1.352       .  A
N1108      C1115   1.350       .  A
N1108      C1116   1.354       .  A
C1109      C1117   1.385       .  A
C1109      C1125   1.409       .  A
C1110      C1126   1.411       .  A
C1110      C1118   1.389       .  A
C1111      C1119   1.389       .  A
C1111      C1128   1.418       .  A
C1112      C1127   1.410       .  A
C1112      C1120   1.383       .  A
C1113      C1125   1.406       .  A
C1113      C1121   1.386       .  A
C1114      C1128   1.405       .  A
C1114      C1122   1.388       .  A
C1115      C1123   1.389       .  A
C1115      C1126   1.414       .  A
C1116      C1124   1.384       .  A
C1116      C1127   1.409       .  A
C1117      C1118   1.372       .  A
C1117      H1129   1.082       .  S
C1118      H1130   1.078       .  S
C1119      C1120   1.375       .  A
C1119      H1131   1.079       .  S
C1120      H1132   1.082       .  S
C1121      C1122   1.372       .  A
C1121      H1133   1.082       .  S
C1122      H1134   1.082       .  S
C1123      C1124   1.372       .  A
C1123      H1135   1.082       .  S
C1124      H1136   1.082       .  S
C1125      C1272   1.448       .  S
C1126      C1274   1.470       .  S
C1127      C1269   1.460       .  S
C1128      C1277   1.472       .  S
O1139     Zn1145   2.152       .  S
C1140      O1156   1.281   1_564  A
C1140      O1367   1.279       .  A
O1141     Cd1148   2.082       .  S
O1142     Cd1151   2.168       .  S
O1143     Cd1147   2.079       .  S
O1144      C1583   1.283       .  A
O1144     Cd1147   2.163       .  S
Zn1145     O1156   2.067       .  S
Zn1145     O1158   2.072       .  S
O1146     Cd1151   2.082       .  S
Cd1147     O1149   2.086       .  S
Cd1147     O1578   2.036   1_556  S
Cd1148     O1152   2.083       .  S
Cd1148     O1161   2.175       .  S
O1149      C1373   1.278   1_556  A
O1150     Cd1575   2.038   1_544  S
Cd1151     O1153   2.090       .  S
O1152      C1159   1.277       .  A
O1153      C1354   1.279       .  A
C1154      C1284   1.449       .  S
C1155      O1572   1.283       .  A
C1155      C1611   1.532       .  S
C1157      C1281   1.432       .  S
C1159      C1265   1.436       .  S
C1159      O1363   1.276   1_545  A
C1160      O1161   1.285       .  A
C1160      C1178   1.534       .  S
O1162     Zn1168   2.139       .  S
C1163      C1263   1.438       .  S
C1163      O1179   1.277       .  A
C1163      O1604   1.277   1_545  A
O1164      C1177   1.276       .  A
O1164     Cd1171   2.073       .  S
O1165     Cd1174   2.190       .  S
O1166      C1180   1.278       .  A
O1166     Cd1170   2.090       .  S
O1167      C1606   1.282       .  A
O1167     Cd1170   2.156       .  S
Zn1168     O1179   2.037       .  S
Zn1168     O1181   2.027       .  S
O1169     Cd1174   2.116       .  S
Cd1170     O1172   2.072       .  S
Cd1170     O1601   2.034       .  S
Cd1171     O1175   2.085       .  S
Cd1171     O1184   2.167       .  S
Cd1171     O1173   2.034       .  S
O1172      C1182   1.276       .  A
O1173     Cd1598   2.038   1_545  S
Cd1174     O1176   2.102       .  S
O1175      C1610   1.278       .  A
O1176      C1591   1.280       .  A
C1177      C1271   1.433       .  S
C1178      O1595   1.284   1_545  A
C1180      C1270   1.446       .  S
C1182      C1689   1.435       .  S
C1182      O1603   1.278       .  A
C1183      O1612   1.283       .  A
C1183      C1583   1.532       .  S
O1184      C1611   1.283   1_545  A
N1185      H1217   1.040       .  S
N1185      C1190   1.356       .  A
N1185      C1189   1.350       .  A
N1186      C1193   1.345   1_545  A
N1186      C1194   1.350       .  A
N1187      H1218   1.037       .  S
N1187      C1192   1.349   1_565  A
N1187      C1191   1.355       .  A
N1188      C1195   1.355       .  A
N1188      C1196   1.351   1_565  A
C1189      C1197   1.389       .  A
C1189      C1205   1.416       .  A
C1190      C1206   1.410       .  A
C1190      C1198   1.384       .  A
C1191      C1199   1.384   1_565  A
C1192      C1207   1.414       .  A
C1192      C1200   1.390       .  A
C1193      C1205   1.405   1_565  A
C1193      C1201   1.388       .  A
C1194      C1208   1.406       .  A
C1194      C1202   1.386   1_545  A
C1195      C1203   1.384       .  A
C1196      C1204   1.390   1_545  A
C1196      C1207   1.417       .  A
C1197      C1198   1.376       .  A
C1197      H1209   1.081       .  S
C1198      H1210   1.082       .  S
C1199      C1200   1.371       .  A
C1199      H1211   1.082       .  S
C1200      H1212   1.076       .  S
C1201      C1202   1.370       .  A
C1201      H1213   1.083       .  S
C1202      H1214   1.082       .  S
C1203      C1204   1.372       .  A
C1203      H1215   1.082       .  S
C1204      H1216   1.082   1_565  S
C1205      C1258   1.466   1_545  S
C1206      C1267   1.461       .  S
C1207      C1253   1.473       .  S
C1208      C1266   1.451       .  S
N1219      H1251   1.033       .  S
N1219      C1224   1.356       .  A
N1219      C1223   1.350       .  A
N1220      C1227   1.347       .  A
N1220      C1228   1.353       .  A
N1221      H1252   1.035       .  S
N1221      C1226   1.347   1_545  A
N1221      C1225   1.355   1_545  A
N1222      C1229   1.353   1_565  A
N1222      C1230   1.349       .  A
C1223      C1231   1.389       .  A
C1223      C1239   1.419       .  A
C1224      C1240   1.414       .  A
C1224      C1232   1.385       .  A
C1225      C1233   1.388       .  A
C1225      C1242   1.415   1_565  A
C1226      C1241   1.412       .  A
C1226      C1234   1.386       .  A
C1227      C1239   1.413       .  A
C1227      C1235   1.387       .  A
C1228      C1242   1.415       .  A
C1228      C1236   1.386       .  A
C1229      C1237   1.385   1_545  A
C1229      C1240   1.410       .  A
C1230      C1238   1.388       .  A
C1230      C1241   1.410       .  A
C1231      C1232   1.371       .  A
C1231      H1243   1.083       .  S
C1232      H1244   1.082       .  S
C1233      C1234   1.375       .  A
C1233      H1245   1.082       .  S
C1234      H1246   1.082       .  S
C1235      C1236   1.376       .  A
C1235      H1247   1.081       .  S
C1236      H1248   1.082       .  S
C1237      C1238   1.368       .  A
C1237      H1249   1.082       .  S
C1238      H1250   1.082       .  S
C1239      C1254   1.476       .  S
C1240      C1264   1.454       .  S
C1241      C1257   1.473       .  S
C1242      C1262   1.458       .  S
C1253      C1254   1.343       .  D
C1253      H1683   1.088       .  S
C1254      H1256   1.086       .  S
H1255      C1681   1.086       .  S
C1257      C1258   1.337       .  D
C1257      H1687   1.086       .  S
C1258      H1260   1.088   1_565  S
H1259      C1685   1.088       .  S
C1261      C1610   1.443       .  S
C1261      C1262   1.211       .  T
C1263      C1264   1.208       .  T
C1265      C1266   1.207       .  T
C1267      C1268   1.214       .  T
C1269      C1270   1.213       .  T
C1271      C1272   1.205       .  T
C1273      C1274   1.342       .  D
C1273      H1275   1.086       .  S
C1277      C1278   1.339       .  D
C1277      H1279   1.088       .  S
C1281      C1282   1.205       .  T
C1283      C1284   1.214   1_556  T
N1285      H1317   1.038       .  S
N1285      C1289   1.349       .  A
N1286      C1293   1.350       .  A
N1286      C1294   1.353       .  A
N1287      H1318   1.038       .  S
N1287      C1292   1.347       .  A
N1288      C1295   1.353       .  A
N1288      C1296   1.349       .  A
C1289      C1297   1.388       .  A
C1289      C1305   1.412       .  A
C1290      C1520   1.414       .  A
C1290      C1298   1.385       .  A
C1291      C1299   1.386       .  A
C1291      C1522   1.409       .  A
C1292      C1307   1.408       .  A
C1292      C1300   1.388       .  A
C1293      C1305   1.412       .  A
C1293      C1301   1.388       .  A
C1294      C1308   1.409       .  A
C1294      C1302   1.385       .  A
C1295      C1303   1.383       .  A
C1295      C1306   1.407       .  A
C1296      C1304   1.389       .  A
C1296      C1307   1.414       .  A
C1297      H1309   1.080       .  S
C1298      H1310   1.082       .  S
C1299      H1311   1.082       .  S
C1300      H1312   1.082       .  S
C1301      C1302   1.372       .  A
C1301      H1313   1.082       .  S
C1302      H1314   1.082       .  S
C1303      C1304   1.374       .  A
C1303      H1315   1.082       .  S
C1304      H1316   1.081       .  S
C1305      C1492   1.468       .  S
C1306      C1504   1.407       .  A
C1308      C1505   1.414   1_554  A
C1308      C1496   1.459       .  S
N1319      H1351   1.034       .  S
N1319      C1324   1.352       .  A
N1319      C1323   1.356       .  A
N1320      C1327   1.349       .  A
N1320      C1328   1.346       .  A
N1321      H1352   1.036       .  S
N1321      C1326   1.356       .  A
N1321      C1325   1.351       .  A
N1322      C1329   1.350       .  A
N1322      C1330   1.354       .  A
C1323      C1331   1.386       .  A
C1323      C1339   1.415       .  A
C1324      C1340   1.417       .  A
C1324      C1332   1.389       .  A
C1325      C1333   1.387       .  A
C1325      C1342   1.414       .  A
C1326      C1341   1.414       .  A
C1326      C1334   1.387       .  A
C1327      C1339   1.409       .  A
C1327      C1335   1.387       .  A
C1328      C1342   1.406       .  A
C1328      C1336   1.386       .  A
C1329      C1337   1.387       .  A
C1329      C1340   1.419       .  A
C1330      C1338   1.385       .  A
C1330      C1341   1.414       .  A
C1331      C1332   1.370       .  A
C1331      H1343   1.082       .  S
C1332      H1344   1.082       .  S
C1333      C1334   1.371       .  A
C1333      H1345   1.083       .  S
C1334      H1346   1.082       .  S
C1335      C1336   1.371       .  A
C1335      H1347   1.082       .  S
C1336      H1348   1.082       .  S
C1337      C1338   1.371       .  A
C1337      H1349   1.081       .  S
C1338      H1350   1.082       .  S
C1339      C1486   1.449       .  S
C1340      C1488   1.482       .  S
C1341      C1483   1.456       .  S
C1342      C1491   1.474       .  S
O1353     Zn1359   2.126       .  S
C1354      C1696   1.437       .  S
C1354      O1370   1.276       .  A
O1355      C1582   1.278       .  A
O1355     Cd1362   2.086       .  S
O1356     Cd1365   2.156       .  S
O1357      C1585   1.277       .  A
O1357     Cd1361   2.079       .  S
O1358     Cd1361   2.148       .  S
Zn1359     O1370   2.020       .  S
Zn1359     O1372   2.036       .  S
O1360     Cd1365   2.085       .  S
Cd1361     O1363   2.074       .  S
Cd1362     O1366   2.095       .  S
Cd1362     O1375   2.164       .  S
Cd1362     O1578   2.038       .  S
O1364     Cd1576   2.038       .  S
Cd1365     O1367   2.097       .  S
O1366      C1373   1.279       .  A
C1368      C1498   1.440       .  S
C1368      O1569   1.278       .  A
C1371      C1495   1.445       .  S
C1371      O1571   1.277   1_554  A
C1373      C1479   1.444       .  S
C1374      O1375   1.283       .  A
C1374      C1392   1.532       .  S
O1376     Zn1382   2.136       .  S
C1377      C1477   1.443       .  S
C1377      O1393   1.278       .  A
O1378      C1391   1.276       .  A
O1378     Cd1385   2.076       .  S
O1379     Cd1388   2.172       .  S
O1380      C1394   1.280       .  A
O1380     Cd1384   2.094       .  S
O1381     Cd1384   2.170       .  S
Zn1382     O1393   2.039       .  S
Zn1382     O1395   2.033       .  S
O1383     Cd1388   2.089       .  S
Cd1384     O1386   2.091       .  S
Cd1385     O1389   2.087       .  S
Cd1385     O1398   2.175       .  S
Cd1385     O1387   2.036       .  S
O1386      C1396   1.278   1_565  A
Cd1388     O1390   2.074       .  S
C1391      C1485   1.432       .  S
C1394      C1484   1.441       .  S
N1399      H1431   1.034       .  S
N1399      C1404   1.358       .  A
N1399      C1403   1.348       .  A
N1400      C1407   1.349       .  A
N1400      C1408   1.352       .  A
N1401      H1432   1.036       .  S
N1401      C1406   1.352       .  A
N1401      C1405   1.358       .  A
N1402      C1409   1.353       .  A
N1402      C1410   1.349       .  A
C1403      C1411   1.386       .  A
C1403      C1419   1.416       .  A
C1404      C1420   1.419       .  A
C1404      C1412   1.388       .  A
C1405      C1413   1.386       .  A
C1405      C1636   1.417       .  A
C1406      C1421   1.419       .  A
C1406      C1414   1.388       .  A
C1407      C1419   1.413       .  A
C1407      C1415   1.387       .  A
C1408      C1422   1.414       .  A
C1408      C1416   1.386       .  A
C1409      C1417   1.385       .  A
C1409      C1634   1.411       .  A
C1410      C1418   1.386       .  A
C1410      C1421   1.412       .  A
C1411      C1412   1.376       .  A
C1411      H1423   1.083       .  S
C1412      H1424   1.082       .  S
C1413      C1414   1.372       .  A
C1413      H1425   1.082       .  S
C1414      H1426   1.082       .  S
C1415      C1416   1.374       .  A
C1415      H1427   1.081       .  S
C1416      H1428   1.082       .  S
C1417      C1418   1.370       .  A
C1417      H1429   1.082       .  S
C1418      H1430   1.081       .  S
C1419      C1472   1.482       .  S
C1420      C1623   1.413   1_554  A
C1420      C1481   1.461       .  S
C1421      C1467   1.480       .  S
C1422      C1619   1.419   1_554  A
C1422      C1480   1.460       .  S
N1433      H1465   1.038       .  S
N1433      C1438   1.355       .  A
N1433      C1437   1.349       .  A
N1434      C1441   1.350       .  A
N1434      C1442   1.353       .  A
N1435      H1466   1.040       .  S
N1435      C1440   1.351       .  A
N1435      C1439   1.356       .  A
N1436      C1443   1.352       .  A
N1436      C1444   1.348       .  A
C1437      C1445   1.386       .  A
C1437      C1453   1.411       .  A
C1438      C1454   1.414       .  A
C1438      C1446   1.385       .  A
C1439      C1447   1.384       .  A
C1439      C1456   1.410       .  A
C1440      C1455   1.417       .  A
C1440      C1448   1.390       .  A
C1441      C1453   1.412       .  A
C1441      C1449   1.389       .  A
C1442      C1456   1.407       .  A
C1442      C1450   1.384       .  A
C1443      C1451   1.386       .  A
C1443      C1454   1.410       .  A
C1444      C1452   1.388       .  A
C1444      C1455   1.410       .  A
C1445      C1446   1.377       .  A
C1445      H1457   1.078       .  S
C1446      H1458   1.082       .  S
C1447      C1448   1.375       .  A
C1447      H1459   1.082       .  S
C1448      H1460   1.082       .  S
C1449      C1450   1.371       .  A
C1449      H1461   1.081       .  S
C1450      H1462   1.082       .  S
C1451      C1452   1.371       .  A
C1451      H1463   1.082       .  S
C1452      H1464   1.082       .  S
C1453      C1468   1.472       .  S
C1454      C1478   1.457       .  S
C1455      C1471   1.473       .  S
C1456      C1476   1.455       .  S
C1467      C1468   1.340       .  D
C1468      H1470   1.089       .  S
C1471      C1472   1.343       .  D
C1472      H1474   1.086       .  S
C1475      C1476   1.209       .  T
C1477      C1478   1.211       .  T
C1479      C1480   1.211       .  T
C1481      C1482   1.213   1_554  T
C1482      C1568   1.446       .  S
C1483      C1484   1.210       .  T
C1485      C1486   1.204       .  T
C1487      C1488   1.339       .  D
C1487      H1489   1.088       .  S
C1491      C1492   1.341       .  D
C1491      H1493   1.086       .  S
C1495      C1496   1.212       .  T
C1497      C1498   1.209       .  T
N1499      H1531   1.041       .  S
N1499      C1503   1.352       .  A
N1500      C1507   1.344       .  A
N1500      C1508   1.351       .  A
N1501      H1532   1.038       .  S
N1501      C1506   1.348       .  A
N1502      C1509   1.353       .  A
N1502      C1510   1.349       .  A
C1503      C1511   1.390       .  A
C1503      C1519   1.417       .  A
C1504      C1512   1.384       .  A
C1505      C1513   1.384       .  A
C1506      C1521   1.412       .  A
C1506      C1514   1.389   1_455  A
C1507      C1519   1.405       .  A
C1507      C1515   1.388       .  A
C1508      C1522   1.406       .  A
C1508      C1516   1.385       .  A
C1509      C1517   1.384       .  A
C1509      C1520   1.408   1_556  A
C1510      C1518   1.389       .  A
C1510      C1521   1.413       .  A
C1511      H1523   1.081       .  S
C1512      H1524   1.082       .  S
C1513      H1525   1.082       .  S
C1514      H1526   1.080       .  S
C1515      C1516   1.372       .  A
C1515      H1527   1.082       .  S
C1516      H1528   1.082       .  S
C1517      C1518   1.371       .  A
C1517      H1529   1.082       .  S
C1518      H1530   1.081       .  S
C1519      C1706   1.468       .  S
C1522      C1710   1.452       .  S
N1533      H1565   1.035       .  S
N1533      C1538   1.353       .  A
N1533      C1537   1.358       .  A
N1534      C1541   1.351       .  A
N1534      C1542   1.348       .  A
N1535      H1566   1.036       .  S
N1535      C1540   1.356       .  A
N1535      C1539   1.349       .  A
N1536      C1543   1.347       .  A
N1536      C1544   1.350       .  A
C1537      C1545   1.387       .  A
C1537      C1553   1.419       .  A
C1538      C1554   1.420       .  A
C1538      C1546   1.386       .  A
C1539      C1547   1.386       .  A
C1539      C1556   1.414       .  A
C1540      C1555   1.415       .  A
C1540      C1548   1.388       .  A
C1541      C1553   1.413       .  A
C1541      C1549   1.387       .  A
C1542      C1556   1.410       .  A
C1542      C1550   1.386       .  A
C1543      C1551   1.388       .  A
C1543      C1554   1.411       .  A
C1544      C1552   1.387       .  A
C1544      C1555   1.412       .  A
C1545      C1546   1.374       .  A
C1545      H1557   1.082       .  S
C1546      H1558   1.082       .  S
C1547      C1548   1.374       .  A
C1547      H1559   1.082       .  S
C1548      H1560   1.082       .  S
C1549      C1550   1.371       .  A
C1549      H1561   1.082       .  S
C1550      H1562   1.082       .  S
C1551      C1552   1.371       .  A
C1551      H1563   1.081       .  S
C1552      H1564   1.082       .  S
C1553      C1700   1.458       .  S
C1554      C1702   1.484       .  S
C1555      C1697   1.451       .  S
C1556      C1705   1.478       .  S
O1567     Zn1573   2.174       .  S
C1568      O1584   1.282       .  A
O1569     Cd1576   2.085       .  S
O1570     Cd1579   2.174       .  S
O1571     Cd1575   2.089       .  S
O1572     Cd1575   2.167       .  S
Zn1573     O1584   2.069       .  S
Zn1573     O1586   2.064       .  S
O1574     Cd1579   2.087       .  S
Cd1575     O1577   2.086       .  S
Cd1576     O1580   2.088       .  S
Cd1576     O1589   2.176       .  S
Cd1579     O1581   2.100       .  S
O1580      C1587   1.278       .  A
C1582      C1712   1.442       .  S
C1585      C1709   1.438       .  S
C1587      C1693   1.439       .  S
C1588      O1589   1.285       .  A
C1588      C1606   1.528       .  S
O1590     Zn1596   2.143       .  S
C1591      C1691   1.447       .  S
C1591      O1607   1.279       .  A
O1592      C1605   1.278       .  A
O1592     Cd1599   2.091       .  S
O1593     Cd1602   2.173       .  S
O1594      C1608   1.278       .  A
O1594     Cd1598   2.088       .  S
O1595     Cd1598   2.176       .  S
Zn1596     O1607   2.044       .  S
Zn1596     O1609   2.029       .  S
O1597     Cd1602   2.093       .  S
Cd1598     O1600   2.098       .  S
Cd1599     O1603   2.083       .  S
Cd1599     O1612   2.162       .  S
Cd1599     O1601   2.033       .  S
O1600      C1610   1.280   1_565  A
Cd1602     O1604   2.081       .  S
C1605      C1699   1.442       .  S
C1608      C1698   1.435       .  S
N1613      H1645   1.037       .  S
N1613      C1618   1.356       .  A
N1613      C1617   1.352       .  A
N1614      C1621   1.348       .  A
N1614      C1622   1.351       .  A
N1615      H1646   1.037       .  S
N1615      C1620   1.353       .  A
N1615      C1619   1.359       .  A
N1616      C1623   1.351       .  A
N1616      C1624   1.347       .  A
C1617      C1625   1.387       .  A
C1617      C1633   1.414       .  A
C1618      C1634   1.414       .  A
C1618      C1626   1.387       .  A
C1619      C1627   1.388       .  A
C1620      C1635   1.419       .  A
C1620      C1628   1.387       .  A
C1621      C1633   1.408       .  A
C1621      C1629   1.385       .  A
C1622      C1636   1.411       .  A
C1622      C1630   1.386       .  A
C1623      C1631   1.385       .  A
C1624      C1632   1.389       .  A
C1624      C1635   1.412       .  A
C1625      C1626   1.371       .  A
C1625      H1637   1.083       .  S
C1626      H1638   1.082       .  S
C1627      C1628   1.372       .  A
C1627      H1639   1.082       .  S
C1628      H1640   1.082       .  S
C1629      C1630   1.370       .  A
C1629      H1641   1.082       .  S
C1630      H1642   1.082       .  S
C1631      C1632   1.370       .  A
C1631      H1643   1.082       .  S
C1632      H1644   1.081       .  S
C1633      C1686   1.475       .  S
C1634      C1695   1.453       .  S
C1635      C1681   1.480       .  S
C1636      C1694   1.455       .  S
N1647      H1679   1.041       .  S
N1647      C1652   1.356       .  A
N1647      C1651   1.351       .  A
N1648      C1655   1.344       .  A
N1648      C1656   1.349       .  A
N1649      H1680   1.039       .  S
N1649      C1654   1.348       .  A
N1649      C1653   1.355       .  A
N1650      C1657   1.353       .  A
N1650      C1658   1.349       .  A
C1651      C1659   1.390       .  A
C1651      C1667   1.417       .  A
C1652      C1668   1.410       .  A
C1652      C1660   1.384       .  A
C1653      C1661   1.385       .  A
C1653      C1670   1.411       .  A
C1654      C1669   1.411       .  A
C1654      C1662   1.388       .  A
C1655      C1667   1.404       .  A
C1655      C1663   1.388       .  A
C1656      C1670   1.405       .  A
C1656      C1664   1.386       .  A
C1657      C1665   1.384       .  A
C1657      C1668   1.408       .  A
C1658      C1666   1.389       .  A
C1658      C1669   1.412       .  A
C1659      C1660   1.377       .  A
C1659      H1671   1.082       .  S
C1660      H1672   1.082       .  S
C1661      C1662   1.376       .  A
C1661      H1673   1.082       .  S
C1662      H1674   1.078       .  S
C1663      C1664   1.372       .  A
C1663      H1675   1.082       .  S
C1664      H1676   1.082       .  S
C1665      C1666   1.374       .  A
C1665      H1677   1.082       .  S
C1666      H1678   1.082       .  S
C1667      C1682   1.469       .  S
C1668      C1692   1.459       .  S
C1669      C1685   1.466       .  S
C1670      C1690   1.450       .  S
C1681      C1682   1.337       .  D
C1682      H1684   1.087       .  S
C1685      C1686   1.340       .  D
C1686      H1688   1.086       .  S
C1689      C1690   1.206       .  T
C1691      C1692   1.213       .  T
C1693      C1694   1.209       .  T
C1695      C1696   1.207       .  T
C1697      C1698   1.206       .  T
C1699      C1700   1.210       .  T
C1701      C1702   1.339       .  D
C1701      H1703   1.088       .  S
C1705      C1706   1.338       .  D
C1705      H1707   1.086       .  S
C1709      C1710   1.208       .  T
C1711      C1712   1.210       .  T
