geometry optimzed in LAMMPS
_audit_creation_date              2020-11-30 
_audit_creation_method            'lammps2cif' 
_symmetry_space_group_name_H-M    'P1' 
_symmetry_Int_Tables_number       1 
_symmetry_cell_setting            triclinic 
loop_ 
_symmetry_equiv_pos_as_xyz 
  x,y,z 
_cell_length_a                    62.06123299 
_cell_length_b                    62.490342968553115 
_cell_length_c                    37.93290918477405 
_cell_angle_alpha                 88.85714109650793 
_cell_angle_beta                  90.246882499392 
_cell_angle_gamma                 119.58431080284133 
loop_ 
_atom_site_label 
_atom_site_type_symbol 
_atom_site_fract_x 
_atom_site_fract_y 
_atom_site_fract_z 
_atom_site_charge 
In1        In  0.58067698  0.50999483  0.48280592     1.36900
C2          C  0.59449596  0.51708553  0.41605757     0.77400
O3          O  0.55138553  0.47613805  0.45657979    -0.61100
O4          O  0.54563148  0.48183103  0.50980550    -0.52000
C5          C  0.62193233  0.51291864  0.02384866     0.70000
O6          O  0.62485387  0.53400976  0.01637594    -0.46800
C7          C  0.57216019  0.54715834  0.01500844     0.74700
O8          O  0.59216374  0.49893616  0.43415513    -0.58700
O9          O  0.59032583  0.54625874  0.02865962    -0.48800
O10         O  0.59286936  0.53337372  0.43315954    -0.55100
C11         C  0.53760744  0.46832734  0.48337078     0.84900
O12         O  0.60182627  0.49511189  0.01391353    -0.57000
O13         O  0.55834116  0.52874111  0.48168264    -0.60300
In14       In  0.53034317  0.57254941  0.06338581     1.36900
C15         C  0.54139999  0.57759239  0.13113994     0.77400
O16         O  0.49433310  0.54583687  0.08983897    -0.61100
O17         O  0.49925485  0.54064476  0.03602136    -0.52000
C18         C  0.52609412  0.60846027  0.03064096     0.70000
O19         O  0.54606739  0.60771879  0.03081161    -0.46800
C20         C  0.55942870  0.55902524  0.03090804     0.74700
O21         O  0.54304348  0.59540868  0.11264320    -0.58700
O22         O  0.56688112  0.57245323  0.05762464    -0.48800
O23         O  0.53625062  0.55848714  0.11435552    -0.55100
C24         C  0.48550596  0.53299278  0.06291883     0.84900
O25         O  0.50956421  0.58710700  0.54255761    -0.57000
O26         O  0.53853370  0.55454179  0.01985191    -0.60300
In27       In  0.58055355  0.50903108  0.31092012     1.36900
C28         C  0.57004047  0.54307857  0.28736546     0.77400
O29         O  0.54535882  0.48140091  0.28393980    -0.61100
O30         O  0.54975036  0.47573492  0.33815845    -0.52000
C31         C  0.61022418  0.49848986  0.27328371     0.70000
O32         O  0.61882445  0.51665487  0.29357499    -0.46800
C33         C  0.59438300  0.51668372  0.37761046     0.74700
O34         O  0.55855354  0.52792469  0.31191700    -0.58700
O35         O  0.59355988  0.53304722  0.35864220    -0.48800
O36         O  0.58858117  0.54220098  0.27548696    -0.55100
C37         C  0.53639629  0.46801418  0.31118425     0.84900
O38         O  0.58708888  0.48759810  0.27086665    -0.57000
O39         O  0.59111342  0.49790991  0.36145153    -0.60300
In40       In  0.53071201  0.57056410  0.23742986     1.36900
C41         C  0.55971585  0.55764105  0.27184187     0.77400
O42         O  0.50257470  0.53542811  0.26472743    -0.61100
O43         O  0.49422043  0.54382399  0.21385775    -0.52000
C44         C  0.52194912  0.60420335  0.26551814     0.70000
O45         O  0.54291148  0.60556999  0.26797595    -0.46800
C46         C  0.54175498  0.57713603  0.16963068     0.74700
O47         O  0.56671563  0.56942131  0.24285324    -0.58700
O48         O  0.53592092  0.55737917  0.18629502    -0.48800
O49         O  0.54033880  0.55604933  0.28472706    -0.55100
C50         C  0.48751313  0.52891150  0.23960765     0.84900
O51         O  0.50676478  0.58693319  0.24690635    -0.57000
O52         O  0.54478324  0.59489342  0.18839285    -0.60300
In53       In  0.47247924  0.40258064  0.48487007     1.36900
C54         C  0.44966390  0.42773102  0.01616245     0.77400
O55         O  0.50926789  0.44320094  0.01838189    -0.61100
O56         O  0.50512080  0.43300354  0.45644828    -0.52000
C57         C  0.48495395  0.38040265  0.02953060     0.70000
O58         O  0.46370053  0.37807202  0.02520850    -0.46800
C59         C  0.46232410  0.38723664  0.41880545     0.74700
O60         O  0.44538691  0.40607071  0.02287098    -0.58700
O61         O  0.44684869  0.38955678  0.43746668    -0.48800
O62         O  0.45535847  0.42661298  0.48413812    -0.55100
C63         C  0.52192679  0.45299219  0.99085904     0.84900
O64         O  0.49840082  0.39414904  0.51360572    -0.57000
O65         O  0.48094284  0.38956794  0.43524007    -0.60300
In66       In  0.42099097  0.46634761  0.06485548     1.36900
C67         C  0.43690466  0.43946337  0.03238463     0.77400
O68         O  0.45276689  0.49774982  0.03615557    -0.61100
O69         O  0.44919638  0.50106080  0.09102037    -0.52000
C70         C  0.38581973  0.46988381  0.02924121     0.70000
O71         O  0.38645349  0.45001191  0.03109044    -0.46800
C72         C  0.41378514  0.45568550  0.13364537     0.74700
O73         O  0.44391207  0.46161153  0.02514413    -0.58700
O74         O  0.43153936  0.45654102  0.11650735    -0.48800
O75         O  0.41990816  0.42969797  0.05543488    -0.55100
C76         C  0.46172131  0.51027438  0.06329513     0.84900
O77         O  0.40166652  0.48679805  0.04784766    -0.57000
O78         O  0.39807586  0.45797760  0.11507597    -0.60300
In79       In  0.47031867  0.40199612  0.31304868     1.36900
C80         C  0.46179714  0.38686217  0.38017929     0.77400
O81         O  0.50422688  0.43174714  0.33908281    -0.61100
O82         O  0.49930341  0.43647329  0.28470419    -0.52000
C83         C  0.47933906  0.37199145  0.27395197     0.70000
O84         O  0.49457681  0.39411103  0.27991066    -0.46800
C85         C  0.44021521  0.41813770  0.29025994     0.74700
O86         O  0.48000692  0.38903631  0.36282510    -0.58700
O87         O  0.45405757  0.42643440  0.31658395    -0.48800
O88         O  0.44575329  0.38875108  0.36201027    -0.55100
C89         C  0.51264682  0.44496359  0.31162088     0.84900
O90         O  0.45803778  0.36468751  0.28704634    -0.57000
O91         O  0.43993533  0.39972249  0.27652572    -0.60300
In92       In  0.42050427  0.46456950  0.24084154     1.36900
C93         C  0.41376235  0.45537234  0.17237083     0.77400
O94         O  0.44851834  0.50034860  0.21568029    -0.61100
O95         O  0.45766773  0.49010218  0.26469679    -0.52000
C96         C  0.39108472  0.47827536  0.27320007     0.70000
O97         O  0.41125699  0.49226393  0.25824605    -0.46800
C98         C  0.42870563  0.43172107  0.27485866     0.74700
O99         O  0.39729338  0.45601535  0.19115105    -0.58700
O100        O  0.43278098  0.45173784  0.28776036    -0.48800
O101        O  0.43209223  0.45716018  0.18920561    -0.55100
C102        C  0.46404848  0.50587570  0.24005471     0.84900
O103        O  0.38440470  0.45569309  0.27004514    -0.57000
O104        O  0.41717822  0.42660710  0.24602458    -0.60300
C105        C  0.49531435  0.78426903  0.39365063     0.86300
C106        C  0.50209704  0.79830342  0.35788752    -0.54000
C107        C  0.49893291  0.81839591  0.35724390     0.09200
C108        C  0.48794617  0.82191262  0.39132707     0.20100
C109        C  0.51001445  0.80379231  0.42102758    -0.54700
C110        C  0.50597033  0.82333759  0.42052422     0.09300
C111        C  0.46795172  0.77770146  0.39914474    -0.54200
C112        C  0.46397631  0.79740223  0.39808822     0.09900
H113        H  0.50925824  0.79339728  0.33532785     0.14400
H114        H  0.48518319  0.83804494  0.38910208     0.00100
H115        H  0.52359878  0.80261466  0.43754981     0.14700
H116        H  0.45283125  0.75892543  0.40218987     0.14500
C117        C  0.49433947  0.68985893  0.39639790     0.86300
C118        C  0.50794290  0.68311405  0.42469145    -0.54000
C119        C  0.50414345  0.65980405  0.42254031     0.09200
C120        C  0.48758420  0.64538988  0.39175704     0.20100
C121        C  0.50312709  0.68479103  0.36085915    -0.54700
C122        C  0.50013673  0.66170130  0.35876945     0.09300
C123        C  0.46686266  0.66934022  0.39843625    -0.54200
C124        C  0.46320013  0.64599669  0.39595323     0.09900
H125        H  0.51884309  0.69543667  0.44552378     0.14400
H126        H  0.48470090  0.62640023  0.39051310     0.00100
H127        H  0.50897880  0.69727491  0.33837592     0.14700
H128        H  0.45179440  0.67308365  0.40262285     0.14500
C129        C  0.22409867  0.68980059  0.39374955     0.86300
C130        C  0.20663390  0.68389382  0.36199076    -0.54000
C131        C  0.18514768  0.66188138  0.36472696     0.09200
C132        C  0.18316612  0.64759472  0.39934311     0.20100
C133        C  0.20847413  0.68714342  0.42680193    -0.54700
C134        C  0.18662613  0.66553934  0.42893518     0.09300
C135        C  0.22796994  0.66712246  0.39720466    -0.54200
C136        C  0.20663412  0.64500924  0.39943042     0.09900
H137        H  0.21213362  0.69542659  0.33853495     0.14400
H138        H  0.16575525  0.62968881  0.40231440     0.00100
H139        H  0.21416252  0.70073205  0.44718040     0.14700
H140        H  0.24597708  0.66822132  0.39689955     0.14500
C141        C  0.32322583  0.77919956  0.37862956     0.86300
C142        C  0.32909776  0.79770559  0.40872392    -0.54000
C143        C  0.35265620  0.81723529  0.40790564     0.09200
C144        C  0.36830452  0.81678303  0.37693330     0.20100
C145        C  0.32956615  0.79539492  0.34490228    -0.54700
C146        C  0.35309792  0.81485694  0.34388792     0.09300
C147        C  0.34392401  0.77229881  0.38287305    -0.54200
C148        C  0.36763961  0.79181617  0.38117510     0.09900
H149        H  0.31610584  0.79591225  0.42900287     0.14400
H150        H  0.38730444  0.83293898  0.37590741     0.00100
H151        H  0.31626822  0.79212636  0.32410152     0.14700
H152        H  0.33981916  0.75375503  0.38934479     0.14500
C153        C  0.22419245  0.52460765  0.39229159     0.86300
C154        C  0.20734172  0.51374492  0.42555412    -0.54000
C155        C  0.18584269  0.51476613  0.42399436     0.09200
C156        C  0.18327216  0.52710644  0.39008210     0.20100
C157        C  0.20616164  0.50959580  0.36234372    -0.54700
C158        C  0.18489232  0.51129064  0.36064470     0.09300
C159        C  0.22811347  0.55087507  0.38846170    -0.54200
C160        C  0.20695248  0.55228736  0.38716938     0.09900
H161        H  0.21107455  0.50477200  0.44761128     0.14400
H162        H  0.16615897  0.52859879  0.38953782     0.00100
H163        H  0.20859146  0.49658697  0.34702720     0.14700
H164        H  0.24634275  0.56719456  0.38827253     0.14500
C165        C  0.32270529  0.52890751  0.40420007     0.86300
C166        C  0.32728322  0.51710295  0.37167650    -0.54000
C167        C  0.34894492  0.51673770  0.37228233     0.09200
C168        C  0.36466231  0.52841996  0.40512225     0.20100
C169        C  0.32502929  0.51349144  0.43499321    -0.54700
C170        C  0.34728127  0.51355621  0.43616399     0.09300
C171        C  0.34599282  0.55455402  0.40609724    -0.54200
C172        C  0.36802318  0.55449561  0.40707727     0.09900
H173        H  0.31438038  0.50893152  0.35020051     0.14400
H174        H  0.38246291  0.52836698  0.40404438     0.00100
H175        H  0.30950372  0.50202021  0.45191629     0.14700
H176        H  0.34505497  0.57146064  0.40597332     0.14500
In177      In  0.54910511  0.94392379  0.04780048     1.36900
C178        C  0.57920711  0.99053486  0.02957616     0.77400
O179        O  0.52371427  0.95778203  0.02970152    -0.61100
O180        O  0.50813706  0.92457261  0.05984259    -0.52000
C181        C  0.54624198  0.91032126  0.00298973     0.70000
O182        O  0.55851164  0.91476264  0.03117934    -0.46800
C183        C  0.55437896  0.93706826  0.11590745     0.74700
O184        O  0.58222711  0.97347037  0.01736328    -0.58700
O185        O  0.53578936  0.92275463  0.09826552    -0.48800
O186        O  0.56300705  0.98388572  0.05349538    -0.55100
C187        C  0.50470181  0.94048584  0.04397889     0.84900
O188        O  0.53783256  0.92458904  0.99665612    -0.57000
O189        O  0.57195534  0.95375020  0.09803137    -0.60300
In190      In  0.59538712  0.05559009  0.47446298     1.36900
C191        C  0.59021034  0.01537650  0.01391679     0.77400
O192        O  0.56455055  0.04891132  0.00312502    -0.61100
O193        O  0.56378722  0.05598280  0.44562243    -0.52000
C194        C  0.63396781  0.09753089  0.00620326     0.70000
O195        O  0.63565301  0.07820655  0.00664008    -0.46800
C196        C  0.60229554  0.05041496  0.40638139     0.74700
O197        O  0.58246174  0.02975044  0.02252754    -0.58700
O198        O  0.58765685  0.03287717  0.42619546    -0.48800
O199        O  0.60009232  0.02286063  0.49109112    -0.55100
C200        C  0.55757231  0.05654723  0.97691865     0.84900
O201        O  0.61436544  0.09570034  0.48738258    -0.57000
O202        O  0.61569282  0.07029254  0.42209405    -0.60300
In203      In  0.54268371  0.94016551  0.22089961     1.36900
C204        C  0.55322862  0.93618438  0.15445517     0.77400
O205        O  0.50919438  0.93671564  0.19367098    -0.61100
O206        O  0.51345518  0.94504799  0.24822387    -0.52000
C207        C  0.53412756  0.90059510  0.25960258     0.70000
O208        O  0.55562825  0.91579597  0.24842226    -0.46800
C209        C  0.57044361  0.98461896  0.24722014     0.74700
O210        O  0.56888728  0.95287998  0.17372549    -0.58700
O211        O  0.57118585  0.96612036  0.25984853    -0.48800
O212        O  0.53415843  0.92021459  0.17036924    -0.55100
C213        C  0.50057581  0.94109054  0.22084406     0.84900
O214        O  0.51783067  0.90598717  0.25083964    -0.57000
O215        O  0.55752047  0.98055123  0.21992824    -0.60300
In216      In  0.58931092  0.04832827  0.29998319     1.36900
C217        C  0.60050710  0.04851067  0.36780096     0.77400
O218        O  0.55563622  0.04443083  0.32806079    -0.61100
O219        O  0.55693553  0.04810807  0.27249144    -0.52000
C220        C  0.61934134  0.09115411  0.26838347     0.70000
O221        O  0.62430127  0.07376600  0.26903899    -0.46800
C222        C  0.58075903  0.00842723  0.26450358     0.74700
O223        O  0.61468618  0.06558106  0.34669512    -0.58700
O224        O  0.59212950  0.01345949  0.29343003    -0.48800
O225        O  0.58235449  0.03059161  0.35350096    -0.55100
C226        C  0.54516602  0.04585874  0.30040902     0.84900
O227        O  0.60095523  0.08721903  0.28687966    -0.57000
O228        O  0.57627548  0.02471173  0.25279873    -0.60300
In229      In  0.43811957  0.94001730  0.04312776     1.36900
C230        C  0.43063054  0.94396781  0.11137308     0.77400
O231        O  0.46154117  0.92269342  0.05745901    -0.61100
O232        O  0.47807788  0.95616477  0.02786063    -0.52000
C233        C  0.40515664  0.90152322  0.00638416     0.70000
O234        O  0.42050778  0.90046935  0.02708313    -0.46800
C235        C  0.44806880  0.98129261  0.00941416     0.74700
O236        O  0.41345652  0.92853646  0.09231118    -0.58700
O237        O  0.45181161  0.96502956  0.99623929    -0.48800
O238        O  0.45048073  0.95771585  0.09514441    -0.55100
C239        C  0.48078740  0.93957172  0.04287729     0.84900
O240        O  0.39789818  0.91887618  0.50347527    -0.57000
O241        O  0.43647673  0.97531844  0.03846842    -0.60300
In242      In  0.48458740  0.05152131  0.47470036     1.36900
C243        C  0.47406960  0.05593212  0.40864155     0.77400
O244        O  0.51764262  0.05449310  0.44573570    -0.61100
O245        O  0.51908166  0.05668144  0.50137939    -0.52000
C246        C  0.49685455  0.08986827  0.01404408     0.70000
O247        O  0.48166583  0.08319564  0.98881127    -0.46800
C248        C  0.45987503  0.00624216  0.99425644     0.74700
O249        O  0.45801185  0.03952175  0.42885643    -0.58700
O250        O  0.47594398  0.01244238  0.97034004    -0.48800
O251        O  0.49354653  0.07167309  0.42354882    -0.55100
C252        C  0.52979390  0.05674331  0.47334574     0.84900
O253        O  0.50571052  0.07597957  0.01969362    -0.57000
O254        O  0.45014036  0.02091066  0.50254719    -0.60300
In255      In  0.43458004  0.94133973  0.21884088     1.36900
C256        C  0.44204473  0.98082241  0.25472153     0.77400
O257        O  0.47023437  0.94939973  0.24536113    -0.61100
O258        O  0.46259660  0.93320984  0.19501155    -0.52000
C259        C  0.40121090  0.89900597  0.24929211     0.70000
O260        O  0.39707297  0.91665777  0.24381757    -0.46800
C261        C  0.42944428  0.94477583  0.14991339     0.74700
O262        O  0.44289735  0.96279927  0.26847819    -0.58700
O263        O  0.44788283  0.96029645  0.16689841    -0.48800
O264        O  0.43514849  0.97793708  0.22298833    -0.55100
C265        C  0.47727988  0.94129780  0.22046086     0.84900
O266        O  0.42150974  0.90266971  0.23679303    -0.57000
O267        O  0.41179900  0.92885072  0.16871458    -0.60300
In268      In  0.47971209  0.04739120  0.30359193     1.36900
C269        C  0.45164151  0.00419396  0.27325508     0.77400
O270        O  0.51223063  0.04975395  0.27392086    -0.61100
O271        O  0.50929014  0.04183928  0.32884959    -0.52000
C272        C  0.48451331  0.08736455  0.27116786     0.70000
O273        O  0.46333535  0.06897024  0.27749082    -0.46800
C274        C  0.47301894  0.05473399  0.37019384     0.74700
O275        O  0.45713891  0.02431732  0.25780728    -0.58700
O276        O  0.49163364  0.06922407  0.35210488    -0.48800
O277        O  0.45798701  0.00611407  0.30513335    -0.55100
C278        C  0.52156257  0.04561228  0.30093509     0.84900
O279        O  0.50242663  0.08495177  0.28165561    -0.57000
O280        O  0.45588238  0.03749361  0.35318586    -0.60300
In281      In  0.95091164  0.41657983  0.31660976     1.36900
C282        C  0.99509457  0.42830566  0.29020496     0.77400
O283        O  0.95702231  0.45149156  0.28913047    -0.61100
O284        O  0.95098988  0.44780357  0.34445198    -0.52000
C285        C  0.91048058  0.38830201  0.27953352     0.70000
O286        O  0.92195094  0.37937183  0.29648033    -0.46800
C287        C  0.94310255  0.40130057  0.38338172     0.74700
O288        O  0.97544969  0.41145113  0.27699291    -0.58700
O289        O  0.92817176  0.40532463  0.36584231    -0.48800
O290        O  0.99202214  0.43679800  0.31831171    -0.55100
C291        C  0.95465339  0.46076959  0.31699315     0.84900
O292        O  0.92067232  0.41129023  0.28066907    -0.57000
O293        O  0.96044995  0.40170709  0.36559160    -0.60300
In294      In  0.06024591  0.47003993  0.23664608     1.36900
C295        C  0.01932808  0.44021564  0.27253038     0.77400
O296        O  0.04311549  0.49314508  0.24917523    -0.61100
O297        O  0.07806444  0.51048325  0.22319960    -0.52000
C298        C  0.09828827  0.47434705  0.27428378     0.70000
O299        O  0.08009534  0.45354261  0.26736999    -0.46800
C300        C  0.06074143  0.46395189  0.16740557     0.74700
O301        O  0.03697568  0.45947212  0.28489445    -0.58700
O302        O  0.04493622  0.46740038  0.18297974    -0.48800
O303        O  0.02344855  0.43444564  0.24251277    -0.55100
C304        C  0.06043530  0.51252855  0.23576327     0.84900
O305        O  0.09733855  0.49241503  0.26084106    -0.57000
O306        O  0.07503297  0.46055858  0.18762257    -0.60300
In307      In  0.94814962  0.41501751  0.48879150     1.36900
C308        C  0.94266382  0.40111457  0.42195907     0.77400
O309        O  0.94548085  0.44623775  0.46363727    -0.61100
O310        O  0.95084116  0.44686507  0.51912775    -0.52000
C311        C  0.91751706  0.38842299  0.02840569     0.70000
O312        O  0.93169244  0.38226292  0.01325710    -0.46800
C313        C  0.00262753  0.43679256  0.01464308     0.74700
O314        O  0.95997451  0.40223205  0.44071252    -0.58700
O315        O  0.99723809  0.44591204  0.98861690    -0.48800
O316        O  0.92682421  0.40402353  0.43844598    -0.55100
C317        C  0.94853655  0.45754570  0.49197805     0.84900
O318        O  0.92446281  0.41098600  0.02644733    -0.57000
O319        O  0.97647100  0.41185894  0.52417745    -0.60300
In320      In  0.07021391  0.47970727  0.06090705     1.36900
C321        C  0.06339724  0.46689956  0.12891164     0.77400
O322        O  0.08299726  0.51691380  0.08392783    -0.61100
O323        O  0.06137679  0.50764083  0.03740079    -0.52000
C324        C  0.11130287  0.48948916  0.02509862     0.70000
O325        O  0.09169051  0.46892496  0.02320757    -0.46800
C326        C  0.02765818  0.44972424  0.02948466     0.74700
O327        O  0.07833424  0.46343862  0.11045067    -0.58700
O328        O  0.04343457  0.47045374  0.01714495    -0.48800
O329        O  0.05164447  0.47535415  0.11211847    -0.55100
C330        C  0.07258707  0.52327946  0.06077779     0.84900
O331        O  0.10370398  0.49321883  0.54976694    -0.57000
O332        O  0.03450378  0.44279217  0.05671813    -0.60300
In333      In  0.95204193  0.52504822  0.32016238     1.36900
C334        C  0.94610734  0.53316376  0.38682230     0.77400
O335        O  0.95346542  0.49342979  0.34612115    -0.61100
O336        O  0.95588445  0.49633225  0.29016167    -0.52000
C337        C  0.91203264  0.51559802  0.28224086     0.70000
O338        O  0.92736904  0.53723316  0.29143139    -0.46800
C339        C  0.99690190  0.55600710  0.29466139     0.74700
O340        O  0.93102340  0.51413026  0.37096223    -0.58700
O341        O  0.99307417  0.54196439  0.32092084    -0.48800
O342        O  0.96243987  0.54979932  0.36740829    -0.55100
C343        C  0.95501722  0.48424832  0.31766741     0.84900
O344        O  0.91724298  0.49957985  0.29302251    -0.57000
O345        O  0.97778517  0.55569617  0.28244290    -0.60300
In346      In  0.06065155  0.57805071  0.23901706     1.36900
C347        C  0.05917073  0.58796304  0.17113933     0.77400
O348        O  0.07638426  0.55480322  0.22012479    -0.61100
O349        O  0.04360242  0.53785474  0.25146422    -0.52000
C350        C  0.10251540  0.60639014  0.27260701     0.70000
O351        O  0.09629183  0.58537913  0.26167879    -0.46800
C352        C  0.02120452  0.56857228  0.27733550     0.74700
O353        O  0.07436472  0.60418130  0.19150123    -0.58700
O354        O  0.03891339  0.56621782  0.28911243    -0.48800
O355        O  0.04348816  0.56829775  0.18621605    -0.55100
C356        C  0.06007576  0.53559130  0.23551875     0.84900
O357        O  0.08720451  0.61368655  0.26543466    -0.57000
O358        O  0.02509643  0.57922152  0.24754247    -0.60300
In359      In  0.95416146  0.52613376  0.49201320     1.36900
C360        C  0.00284384  0.56124227  0.01376995     0.77400
O361        O  0.95726563  0.49774795  0.01926042    -0.61100
O362        O  0.94680940  0.49142791  0.46552786    -0.52000
C363        C  0.92013423  0.52411956  0.03091342     0.70000
O364        O  0.92797155  0.53946195  0.00545353    -0.46800
C365        C  0.94692955  0.53350423  0.42532105     0.74700
O366        O  0.98405787  0.56199728  0.02465497    -0.58700
O367        O  0.96495796  0.54973408  0.44237242    -0.48800
O368        O  0.99488468  0.54021142  0.48922885    -0.55100
C369        C  0.95001883  0.48158005  0.49270820     0.84900
O370        O  0.93111922  0.51327817  0.54085235    -0.57000
O371        O  0.93142678  0.51526053  0.44343722    -0.60300
In372      In  0.06925868  0.58715176  0.06449122     1.36900
C373        C  0.02754157  0.57431983  0.02958796     0.77400
O374        O  0.06259941  0.55288315  0.03781643    -0.61100
O375        O  0.08175682  0.56140119  0.08653504    -0.52000
C376        C  0.11093371  0.62245027  0.03405438     0.70000
O377        O  0.09078328  0.62288143  0.03324770    -0.46800
C378        C  0.06120511  0.58965512  0.13264585     0.74700
O379        O  0.04444329  0.57043565  0.01901866    -0.58700
O380        O  0.04885833  0.57083843  0.11453998    -0.48800
O381        O  0.03296571  0.58765234  0.05644046    -0.55100
C382        C  0.07260948  0.54656665  0.06159295     0.84900
O383        O  0.10981922  0.60502582  0.05242444    -0.57000
O384        O  0.07678742  0.60845110  0.11538638    -0.60300
C385        C  0.52944354  0.20658343  0.14146990     0.86300
C386        C  0.52097676  0.19161363  0.10739081    -0.54000
C387        C  0.52223608  0.17038484  0.10846400     0.09200
C388        C  0.53216380  0.16619825  0.14380237     0.20100
C389        C  0.51364039  0.18804947  0.17121012    -0.54700
C390        C  0.51469632  0.16678882  0.17179882     0.09300
C391        C  0.55566052  0.21066246  0.14884756    -0.54200
C392        C  0.55731096  0.18969608  0.14910084     0.09900
H393        H  0.51556105  0.19811050  0.08421500     0.14400
H394        H  0.53344818  0.14909553  0.14540143     0.00100
H395        H  0.50354381  0.19152267  0.19144623     0.14700
H396        H  0.57186429  0.22875171  0.15136693     0.14500
C397        C  0.53012297  0.30129665  0.14925624     0.86300
C398        C  0.52008001  0.30570835  0.18413927    -0.54000
C399        C  0.52182460  0.32837661  0.18558791     0.09200
C400        C  0.53468905  0.34501163  0.15334358     0.20100
C401        C  0.51708152  0.30743587  0.11968441    -0.54700
C402        C  0.51978892  0.33032050  0.12143759     0.09300
C403        C  0.55727768  0.32281478  0.14778991    -0.54200
C404        C  0.55967474  0.34562238  0.15064661     0.09900
H405        H  0.51163022  0.29199595  0.20515102     0.14400
H406        H  0.53628464  0.36348335  0.15489808     0.00100
H407        H  0.50616555  0.29445280  0.09956811     0.14700
H408        H  0.57341670  0.32048957  0.14556423     0.14500
C409        C  0.79481811  0.47133716  0.15044619     0.86300
C410        C  0.80862096  0.47760512  0.18594941    -0.54000
C411        C  0.83034225  0.47715104  0.18529086     0.09200
C412        C  0.83563188  0.46888441  0.14990990     0.20100
C413        C  0.81407287  0.48856078  0.12298689    -0.54700
C414        C  0.83532843  0.48712255  0.12208091     0.09300
C415        C  0.79109984  0.44546271  0.14314827    -0.54200
C416        C  0.81234645  0.44413814  0.14237687     0.09900
H417        H  0.80238900  0.48262100  0.20934688     0.14400
H418        H  0.85288321  0.46767617  0.15042435     0.00100
H419        H  0.81108072  0.50117737  0.10652914     0.14700
H420        H  0.77305765  0.42907724  0.14100744     0.14500
C421        C  0.69696707  0.46642312  0.14864824     0.86300
C422        C  0.69387179  0.48296166  0.12078471    -0.54000
C423        C  0.67133938  0.48169985  0.12145659     0.09200
C424        C  0.65379537  0.46396754  0.14986106     0.20100
C425        C  0.69049339  0.47364784  0.18432694    -0.54700
C426        C  0.66811487  0.47280093  0.18472745     0.09300
C427        C  0.67481435  0.44031139  0.14366172    -0.54200
C428        C  0.65214069  0.43900518  0.14324907     0.09900
H429        H  0.70815265  0.49428229  0.10163118     0.14400
H430        H  0.63552322  0.46298289  0.15058946     0.00100
H431        H  0.70158679  0.47722852  0.20781911     0.14700
H432        H  0.67675082  0.42404264  0.14222125     0.14500
C433        C  0.79434420  0.30600109  0.14814178     0.86300
C434        C  0.81337261  0.31083961  0.11868964    -0.54000
C435        C  0.83439698  0.33315667  0.12037515     0.09200
C436        C  0.83464481  0.34886632  0.15094115     0.20100
C437        C  0.80866910  0.31071827  0.18345130    -0.54700
C438        C  0.83014292  0.33296150  0.18456529     0.09300
C439        C  0.78996663  0.32835497  0.14540502    -0.54200
C440        C  0.81101981  0.35065729  0.14714285     0.09900
H441        H  0.81013194  0.29799304  0.09776670     0.14400
H442        H  0.85176706  0.36713422  0.15152126     0.00100
H443        H  0.80123331  0.29879839  0.20636936     0.14700
H444        H  0.77183317  0.32692265  0.14393609     0.14500
C445        C  0.69781902  0.21271280  0.13908822     0.86300
C446        C  0.69215009  0.19608150  0.17261128    -0.54000
C447        C  0.67058774  0.17401218  0.17125269     0.09200
C448        C  0.65621582  0.17099612  0.13656014     0.20100
C449        C  0.69618098  0.19631410  0.10828984    -0.54700
C450        C  0.67464140  0.17452600  0.10700733     0.09300
C451        C  0.67445161  0.21551173  0.13686514    -0.54200
C452        C  0.65268085  0.19377353  0.13465508     0.09900
H453        H  0.70300538  0.20229894  0.19633429     0.14400
H454        H  0.63855217  0.15332767  0.13464773     0.00100
H455        H  0.71095103  0.20158559  0.08904673     0.14700
H456        H  0.67493537  0.23304963  0.13864033     0.14500
C457        C  0.75167985  0.27967129  0.12192652    -0.06000
C458        C  0.77039516  0.28081776  0.14438119    -0.00100
C459        C  0.76670200  0.25801962  0.15893210    -0.08600
C460        C  0.74282478  0.23716891  0.15778805    -0.06000
C461        C  0.72302558  0.23688123  0.13889796    -0.00100
C462        C  0.72886195  0.25799622  0.11709188    -0.08500
C463        C  0.71271046  0.25927482  0.08766636     0.61800
H464        H  0.75531368  0.29577729  0.10624446     0.12500
H465        H  0.74016580  0.22033862  0.17033130     0.12500
C466        C  0.78723547  0.25395791  0.17376128     0.62100
F467        F  0.72730101  0.27158828  0.05856983    -0.23100
F468        F  0.70132539  0.27215877  0.09907957    -0.20400
F469        F  0.69505007  0.23657923  0.07602327    -0.20100
F470        F  0.78776490  0.25572450  0.21002964    -0.20200
F471        F  0.81007447  0.27039365  0.15955100    -0.20500
F472        F  0.78303032  0.23069523  0.16568137    -0.23200
C473        C  0.79872564  0.40299745  0.16891500    -0.06000
C474        C  0.81182697  0.42004450  0.14175743    -0.00100
C475        C  0.82363462  0.41362910  0.11543235    -0.08600
C476        C  0.82344246  0.39103696  0.11894126    -0.06000
C477        C  0.81109931  0.37443350  0.14694192    -0.00100
C478        C  0.79889119  0.38071879  0.17292999    -0.08500
C479        C  0.78679532  0.36573624  0.20632465     0.61800
H480        H  0.78910930  0.40771545  0.18842878     0.12500
H481        H  0.83242293  0.38582546  0.09921052     0.12500
C482        C  0.83422805  0.42925403  0.08221320     0.62100
F483        F  0.79701593  0.38051689  0.23524770    -0.23100
F484        F  0.78990753  0.34550896  0.21109964    -0.20400
F485        F  0.76169131  0.35783281  0.20561438    -0.20100
F486        F  0.85367866  0.45210337  0.09025343    -0.20200
F487        F  0.81582139  0.43193329  0.06562194    -0.20500
F488        F  0.84289890  0.41853287  0.05870166    -0.23200
C489        C  0.75273649  0.45768483  0.12409070    -0.06000
C490        C  0.77075662  0.47275293  0.14855952    -0.00100
C491        C  0.76614269  0.48963637  0.16726565    -0.08600
C492        C  0.74187032  0.48598783  0.16773211    -0.06000
C493        C  0.72275823  0.46860963  0.14640375    -0.00100
C494        C  0.72952861  0.45634413  0.12103635    -0.08500
C495        C  0.71365564  0.44153901  0.09021362     0.61800
H496        H  0.75715590  0.44730039  0.10584130     0.12500
H497        H  0.73848575  0.49835634  0.18327096     0.12500
C498        C  0.78597924  0.51299888  0.18429673     0.62100
F499        F  0.72848933  0.44550503  0.06089760    -0.23100
F500        F  0.69621729  0.44795893  0.08004314    -0.20400
F501        F  0.70199980  0.41673416  0.09903718    -0.20100
F502        F  0.78129971  0.53216203  0.17736896    -0.20200
F503        F  0.80943546  0.52050511  0.17129289    -0.20500
F504        F  0.78558112  0.50948374  0.22044845    -0.23200
C505        C  0.58595271  0.38724153  0.12536591    -0.06000
C506        C  0.58386067  0.36902186  0.14956413    -0.00100
C507        C  0.60451482  0.37386459  0.17124208    -0.08600
C508        C  0.62626086  0.39675904  0.16756081    -0.06000
C509        C  0.62834328  0.41502495  0.14347136    -0.00100
C510        C  0.60805923  0.40982208  0.12091684    -0.08500
C511        C  0.61018767  0.42648631  0.08987856     0.61800
H512        H  0.57013952  0.38332315  0.10900063     0.12500
H513        H  0.64182567  0.40067537  0.18456094     0.12500
C514        C  0.60505211  0.35660186  0.19964850     0.62100
F515        F  0.59035479  0.41503005  0.06710053    -0.23100
F516        F  0.63145453  0.43246686  0.07098610    -0.20400
F517        F  0.61078176  0.44760652  0.10118222    -0.20100
F518        F  0.62096813  0.34838780  0.18907487    -0.20200
F519        F  0.58229158  0.33648439  0.20719989    -0.20500
F520        F  0.61380804  0.36927172  0.23069305    -0.23200
C521        C  0.59146419  0.19187462  0.11276612    -0.06000
C522        C  0.58167708  0.19046403  0.14652526    -0.00100
C523        C  0.59551309  0.19067041  0.17638397    -0.08600
C524        C  0.61886423  0.19242092  0.17134531    -0.06000
C525        C  0.62802659  0.19245679  0.13753458    -0.00100
C526        C  0.61396151  0.19189345  0.10769382    -0.08500
C527        C  0.62219734  0.19047048  0.07075449     0.61800
H528        H  0.58103991  0.19256246  0.09022942     0.12500
H529        H  0.62996788  0.19319975  0.19390451     0.12500
C530        C  0.58520218  0.18807297  0.21324760     0.62100
F531        F  0.60655407  0.19140095  0.04536944    -0.23100
F532        F  0.62216076  0.16849029  0.06756549    -0.20400
F533        F  0.64574556  0.20982816  0.06425905    -0.20100
F534        F  0.56475705  0.16493688  0.21729138    -0.20200
F535        F  0.57838001  0.20575294  0.21860672    -0.20500
F536        F  0.60228639  0.19066141  0.23877895    -0.23200
C537        C  0.50795328  0.23134419  0.15422467    -0.06000
C538        C  0.52815158  0.23056285  0.13856576    -0.00100
C539        C  0.54538021  0.25194559  0.11886940    -0.08600
C540        C  0.54493620  0.27397444  0.12333389    -0.06000
C541        C  0.52717756  0.27561840  0.14434814    -0.00100
C542        C  0.50624339  0.25296536  0.15533282    -0.08500
C543        C  0.48095976  0.24929243  0.16593097     0.61800
H544        H  0.49218148  0.21452140  0.16373364     0.12500
H545        H  0.55837226  0.29005471  0.10863229     0.12500
C546        C  0.56436159  0.25365801  0.09189466     0.62100
F547        F  0.46293586  0.23074649  0.14594678    -0.23100
F548        F  0.47819927  0.26965995  0.16043252    -0.20400
F549        F  0.47647190  0.24216019  0.20110265    -0.20100
F550        F  0.56355592  0.23175363  0.08496030    -0.20200
F551        F  0.58791125  0.27016193  0.10341651    -0.20500
F552        F  0.56033104  0.26247787  0.06021565    -0.23200
C553        C  0.87624602  0.51280669  0.03932814    -0.06000
C554        C  0.89942689  0.51988464  0.05424061    -0.00100
C555        C  0.90183906  0.51984621  0.09124681    -0.08600
C556        C  0.88048615  0.51093059  0.11221192    -0.06000
C557        C  0.85675833  0.50165770  0.09758916    -0.00100
C558        C  0.85456255  0.50329824  0.06026365    -0.08500
C559        C  0.82986548  0.49454351  0.04180157     0.61800
H560        H  0.87510154  0.51351386  0.01086397     0.12500
H561        H  0.88221649  0.50967734  0.14041356     0.12500
C562        C  0.92647993  0.52705923  0.10879740     0.62100
F563        F  0.83181563  0.49219654  0.00590255    -0.23100
F564        F  0.82197493  0.51147367  0.04639082    -0.20400
F565        F  0.81213836  0.47180696  0.05482059    -0.20100
F566        F  0.94566528  0.54707717  0.09151563    -0.20200
F567        F  0.93077286  0.50735550  0.10823539    -0.20500
F568        F  0.92647688  0.53346114  0.14349715    -0.23200
C569        C  0.86807718  0.51235503  0.20914102    -0.06000
C570        C  0.84914048  0.48785642  0.21356429    -0.00100
C571        C  0.84945682  0.47394399  0.24312677    -0.08600
C572        C  0.86955483  0.48464636  0.26637611    -0.06000
C573        C  0.88964168  0.50846672  0.26043966    -0.00100
C574        C  0.88880916  0.52281512  0.23157756    -0.08500
C575        C  0.91027608  0.54825028  0.22297681     0.61800
H576        H  0.86697057  0.52289584  0.18690063     0.12500
H577        H  0.87031554  0.47392044  0.28864070     0.12500
C578        C  0.82941939  0.44749243  0.24893246     0.62100
F579        F  0.90611203  0.55827312  0.19256842    -0.23100
F580        F  0.93161978  0.54687483  0.21792789    -0.20400
F581        F  0.91375735  0.56388795  0.25035636    -0.20100
F582        F  0.82953220  0.43397719  0.22081234    -0.20200
F583        F  0.80654879  0.44611213  0.25152565    -0.20500
F584        F  0.83315017  0.43712249  0.27931324    -0.23200
C585        C  0.89638972  0.35617345  0.07419597    -0.06000
C586        C  0.89470443  0.37104226  0.04755659    -0.00100
C587        C  0.87182322  0.37040634  0.04143482    -0.08600
C588        C  0.85184903  0.35634313  0.06454872    -0.06000
C589        C  0.85423277  0.34312880  0.09312800    -0.00100
C590        C  0.87642962  0.34220147  0.09728985    -0.08500
C591        C  0.87924448  0.32714462  0.12668391     0.61800
H592        H  0.91394153  0.35667137  0.07799882     0.12500
H593        H  0.83447366  0.35627901  0.06127312     0.12500
C594        C  0.85858497  0.37567679  0.51126205     0.62100
F595        F  0.90147565  0.32709148  0.12441423    -0.23100
F596        F  0.86019319  0.30306115  0.12509493    -0.20400
F597        F  0.87855063  0.33698257  0.15859367    -0.20100
F598        F  0.86784170  0.37123394  0.48082666    -0.20200
F599        F  0.86936229  0.40077514  0.51582248    -0.20500
F600        F  0.83336939  0.36629201  0.50679092    -0.23200
C601        C  0.85250697  0.36807975  0.22364379    -0.06000
C602        C  0.84624046  0.34379161  0.21612033    -0.00100
C603        C  0.85861644  0.33298195  0.23449901    -0.08600
C604        C  0.87919875  0.34816403  0.25547276    -0.06000
C605        C  0.88715768  0.37324429  0.25972283    -0.00100
C606        C  0.87260369  0.38309372  0.24519823    -0.08500
C607        C  0.87823757  0.40940918  0.25111875     0.61800
H608        H  0.84218728  0.37575549  0.21074120     0.12500
H609        H  0.88960692  0.34056705  0.26831974     0.12500
C610        C  0.85044755  0.30579003  0.23273056     0.62100
F611        F  0.85966954  0.41353641  0.23828105    -0.23100
F612        F  0.90000026  0.42577155  0.23389794    -0.20400
F613        F  0.88034058  0.41420514  0.28680271    -0.20100
F614        F  0.85010175  0.29895758  0.19833928    -0.20200
F615        F  0.82708573  0.29222826  0.24737973    -0.20500
F616        F  0.86611143  0.29991119  0.25142652    -0.23200
C617        C  0.47520314  0.10524096  0.21918188    -0.06000
C618        C  0.48860459  0.10925787  0.25039709    -0.00100
C619        C  0.50780294  0.13335121  0.25814976    -0.08600
C620        C  0.51395381  0.15229692  0.23291772    -0.06000
C621        C  0.50280509  0.14744851  0.19974023    -0.00100
C622        C  0.48229846  0.12389543  0.19326413    -0.08500
C623        C  0.46798697  0.11840843  0.15925451     0.61800
H624        H  0.46036386  0.08680442  0.21400283     0.12500
H625        H  0.52892273  0.17070010  0.23782873     0.12500
C626        C  0.52267518  0.13895042  0.29192274     0.62100
F627        F  0.44742044  0.09507642  0.15959962    -0.23100
F628        F  0.48298954  0.11984637  0.13160115    -0.20400
F629        F  0.45990966  0.13523632  0.15427882    -0.20100
F630        F  0.53860529  0.12947705  0.29035418    -0.20200
F631        F  0.50692853  0.12866393  0.32061085    -0.20500
F632        F  0.53680228  0.16403840  0.29704008    -0.23200
C633        C  0.48840115  0.12202361  0.03764296    -0.06000
C634        C  0.50444541  0.11228046  0.03508591    -0.00100
C635        C  0.52777906  0.12441401  0.05221395    -0.08600
C636        C  0.53290236  0.14412437  0.07400292    -0.06000
C637        C  0.51637325  0.15300447  0.07868083    -0.00100
C638        C  0.49401385  0.14248861  0.05884882    -0.08500
C639        C  0.47595120  0.15228067  0.05960093     0.61800
H640        H  0.47121317  0.11324862  0.02310581     0.12500
H641        H  0.54984705  0.15221334  0.08883849     0.12500
C642        C  0.54764693  0.11705416  0.04791201     0.62100
F643        F  0.48599323  0.17448361  0.04129438    -0.23100
F644        F  0.47082351  0.15557018  0.09372393    -0.20400
F645        F  0.45363657  0.13632808  0.04395328    -0.20100
F646        F  0.55134754  0.11480402  0.01254979    -0.20200
F647        F  0.54063589  0.09501913  0.06565438    -0.20500
F648        F  0.57020494  0.13445687  0.06141127    -0.23200
C649        C  0.63396953  0.14486561  0.20578406    -0.06000
C650        C  0.65964116  0.15547731  0.20101623    -0.00100
C651        C  0.67256234  0.14584075  0.22109043    -0.08600
C652        C  0.65867223  0.12467097  0.24266660    -0.06000
C653        C  0.63288762  0.11381326  0.24627323    -0.00100
C654        C  0.62025561  0.12423641  0.22771575    -0.08500
C655        C  0.59219675  0.11306890  0.22916150     0.61800
H656        H  0.62436247  0.15259275  0.19127615     0.12500
H657        H  0.66791341  0.11663462  0.25760211     0.12500
C658        C  0.70063367  0.15769305  0.22114500     0.62100
F659        F  0.58380712  0.12428928  0.20520045    -0.23100
F660        F  0.58493580  0.11577765  0.26241021    -0.20400
F661        F  0.58086671  0.08837528  0.22119513    -0.20100
F662        F  0.71058216  0.17943302  0.23932477    -0.20200
F663        F  0.70999743  0.16239694  0.18726040    -0.20500
F664        F  0.70843224  0.14275283  0.23765074    -0.24400
C665        C  0.65944638  0.11573760  0.05898507    -0.06000
C666        C  0.65006726  0.11951095  0.02725527    -0.00100
C667        C  0.65374909  0.14333359  0.01893237    -0.08600
C668        C  0.66302633  0.16134244  0.04515144    -0.06000
C669        C  0.66912052  0.15630022  0.07875988    -0.00100
C670        C  0.66931191  0.13393850  0.08474838    -0.08500
C671        C  0.68008371  0.12932584  0.11789899     0.61800
H672        H  0.65763222  0.09784617  0.06446182     0.12500
H673        H  0.66465169  0.17919190  0.03996140     0.12500
C674        C  0.64816179  0.14991379  0.98265083     0.62100
F675        F  0.68181235  0.10811231  0.11604096    -0.23100
F676        F  0.66522577  0.12680256  0.14634138    -0.20400
F677        F  0.70368162  0.14884255  0.12271622    -0.20100
F678        F  0.62305900  0.14155681  0.97961324    -0.20200
F679        F  0.65937967  0.13961577  0.46093630    -0.20500
F680        F  0.66080014  0.17513679  0.97667465    -0.23200
C681        C  0.12964195  0.47236942  0.48201844    -0.06000
C682        C  0.12650465  0.48980445  0.50084245    -0.00100
C683        C  0.14376129  0.51528985  0.49503346    -0.08600
C684        C  0.16308374  0.52207922  0.47048546    -0.06000
C685        C  0.16623583  0.50477170  0.45179795    -0.00100
C686        C  0.14933938  0.47928868  0.45780342    -0.08500
C687        C  0.15047161  0.45849296  0.43934994     0.61800
H688        H  0.11643125  0.45300200  0.48613488     0.12500
H689        H  0.17598500  0.54138533  0.46521046     0.12500
C690        C  0.14160277  0.53559087  0.51342012     0.62100
F691        F  0.12885417  0.44495503  0.42066959    -0.23100
F692        F  0.15247975  0.44321613  0.46444960    -0.20400
F693        F  0.17009508  0.46632367  0.41615721    -0.20100
F694        F  0.15095134  0.54470395  0.04290505    -0.20200
F695        F  0.11850126  0.53313226  0.50733742    -0.20500
F696        F  0.15914882  0.55882592  0.50139479    -0.23200
C697        C  0.13935403  0.48559349  0.35344121    -0.06000
C698        C  0.16297438  0.49655043  0.33732771    -0.00100
C699        C  0.16436941  0.49613702  0.29987096    -0.08600
C700        C  0.14234380  0.48701673  0.28027608    -0.06000
C701        C  0.11925928  0.47801065  0.29657442    -0.00100
C702        C  0.11743032  0.47647612  0.33367957    -0.08500
C703        C  0.09252822  0.46657045  0.35210520     0.61800
H704        H  0.13820500  0.48541986  0.38189301     0.12500
H705        H  0.14296269  0.48759405  0.25171875     0.12500
C706        C  0.18862287  0.50577488  0.28001051     0.62100
F707        F  0.09463623  0.46604635  0.38843098    -0.23100
F708        F  0.07668067  0.44283474  0.34140077    -0.20400
F709        F  0.08228237  0.48126392  0.34359964    -0.20100
F710        F  0.19818560  0.49027446  0.28626978    -0.20200
F711        F  0.20518854  0.52924666  0.29050176    -0.20500
F712        F  0.18562765  0.50680253  0.24392603    -0.23200
C713        C  0.26071330  0.52754310  0.42746055    -0.06000
C714        C  0.24968193  0.52534078  0.39398586    -0.00100
C715        C  0.26541963  0.52960196  0.36403704    -0.08600
C716        C  0.28864033  0.53100664  0.36903067    -0.06000
C717        C  0.29816453  0.52997559  0.40241633    -0.00100
C718        C  0.28503547  0.53150345  0.43208139    -0.08500
C719        C  0.29619272  0.53957480  0.46844206     0.61800
H720        H  0.25116500  0.52834135  0.45068989     0.12500
H721        H  0.29999929  0.53381958  0.34609083     0.12500
C722        C  0.25884362  0.53266856  0.32625024     0.62100
F723        F  0.28775399  0.55511475  0.98090756    -0.23100
F724        F  0.32170551  0.55165049  0.46795433    -0.20400
F725        F  0.28735766  0.51937017  0.49102707    -0.20100
F726        F  0.24706747  0.54642153  0.32459454    -0.20200
F727        F  0.24414387  0.50981878  0.31201216    -0.20500
F728        F  0.27978115  0.54493364  0.30511900    -0.23200
C729        C  0.38807207  0.85568400  0.26497060    -0.06000
C730        C  0.38484573  0.87616739  0.27004196    -0.00100
C731        C  0.36873000  0.87512508  0.29734590    -0.08600
C732        C  0.35738186  0.85395852  0.31952777    -0.06000
C733        C  0.36224595  0.83443398  0.31591181    -0.00100
C734        C  0.37716333  0.83488798  0.28758816    -0.08500
C735        C  0.38196955  0.81370738  0.28179332     0.61800
H736        H  0.40017526  0.85650061  0.24388061     0.12500
H737        H  0.34543762  0.85292510  0.34098927     0.12500
C738        C  0.36464274  0.89668931  0.30448775     0.62100
F739        F  0.39511310  0.81672371  0.25095673    -0.23100
F740        F  0.35965291  0.79207304  0.27953176    -0.20400
F741        F  0.39551760  0.81199409  0.30960507    -0.20100
F742        F  0.35451705  0.90174518  0.27509739    -0.20200
F743        F  0.38699826  0.91720033  0.31248791    -0.20500
F744        F  0.34861187  0.89187205  0.33255625    -0.23200
C745        C  0.37380597  0.85392223  0.49271723    -0.06000
C746        C  0.38339973  0.87810658  0.47951257    -0.00100
C747        C  0.38294587  0.88213289  0.44262276    -0.08600
C748        C  0.37206949  0.86162422  0.42052054    -0.06000
C749        C  0.36229804  0.83746843  0.43378952    -0.00100
C750        C  0.36360215  0.83346404  0.47049948    -0.08500
C751        C  0.35553620  0.80803189  0.48628770     0.61800
H752        H  0.38252398  0.85426525  0.02443320     0.12500
H753        H  0.37160737  0.86434803  0.39235004     0.12500
C754        C  0.39520182  0.90789146  0.42629800     0.62100
F755        F  0.36662355  0.81134179  0.02508769    -0.23100
F756        F  0.36480915  0.79600080  0.46654356    -0.20400
F757        F  0.33000128  0.79428789  0.48729280    -0.20100
F758        F  0.41983271  0.92072959  0.43611509    -0.20200
F759        F  0.38319096  0.92019363  0.43753618    -0.20500
F760        F  0.39442131  0.90749073  0.38981021    -0.23200
C761        C  0.17366078  0.65190845  0.49078166    -0.06000
C762        C  0.16843832  0.65917748  0.45823123    -0.00100
C763        C  0.14543043  0.65848082  0.45366374    -0.08600
C764        C  0.12974622  0.65293961  0.98511426    -0.06000
C765        C  0.13093710  0.63607438  0.50996755    -0.00100
C766        C  0.15514267  0.63990753  0.51676990    -0.08500
C767        C  0.16146678  0.63083449  0.55053684     0.61800
H768        H  0.19195481  0.65418560  0.49472743     0.12500
H769        H  0.11223048  0.65272579  0.98329996     0.12500
C770        C  0.14013737  0.66958037  0.42133846     0.62100
F771        F  0.18682199  0.64104642  0.55456959    -0.23100
F772        F  0.15125970  0.60554707  0.55002093    -0.20400
F773        F  0.15243884  0.63727968  0.57932780    -0.20100
F774        F  0.13903391  0.65627984  0.39222596    -0.20200
F775        F  0.15867824  0.69376587  0.41710177    -0.20500
F776        F  0.12158435  0.67990151  0.93443402    -0.23200
C777        C  0.15854028  0.62496388  0.33124814    -0.06000
C778        C  0.16682088  0.65006790  0.33577287    -0.00100
C779        C  0.15547051  0.66138981  0.31598632    -0.08600
C780        C  0.13461307  0.64631238  0.29543945    -0.06000
C781        C  0.12564972  0.62094427  0.29263125    -0.00100
C782        C  0.13859173  0.61018780  0.30955680    -0.08500
C783        C  0.13161002  0.58323394  0.30594926     0.61800
H784        H  0.16730783  0.61674321  0.34560807     0.12500
H785        H  0.12514951  0.65427466  0.28110713     0.12500
C786        C  0.16464688  0.68888498  0.31594896     0.62100
F787        F  0.14677163  0.57718130  0.32564322    -0.23100
F788        F  0.13394678  0.57855471  0.27109383    -0.20400
F789        F  0.10754563  0.56803656  0.31749739    -0.20100
F790        F  0.18709184  0.70128806  0.29841318    -0.20200
F791        F  0.16733020  0.69724028  0.34988003    -0.20500
F792        F  0.14839067  0.69471971  0.29886435    -0.23200
C793        C  0.20654599  0.61191694  0.36314233    -0.06000
C794        C  0.20655269  0.62106311  0.39675634    -0.00100
C795        C  0.20780333  0.60798637  0.42684726    -0.08600
C796        C  0.20873838  0.58612275  0.42239132    -0.06000
C797        C  0.20711960  0.57620324  0.38905150    -0.00100
C798        C  0.20592303  0.58919909  0.35879119    -0.08500
C799        C  0.20410725  0.57904495  0.32228033     0.61800
H800        H  0.20686121  0.62271018  0.34011600     0.12500
H801        H  0.21031779  0.57624352  0.44524075     0.12500
C802        C  0.20708099  0.61657762  0.46353720     0.62100
F803        F  0.20269294  0.59417173  0.29629501    -0.23100
F804        F  0.18308345  0.55618101  0.32026330    -0.20400
F805        F  0.22477385  0.57680145  0.31564630    -0.20100
F806        F  0.22504209  0.64097452  0.46699064    -0.20200
F807        F  0.21113796  0.60290726  0.48916405    -0.20500
F808        F  0.18394471  0.61395580  0.46921135    -0.23200
C809        C  0.26640341  0.71400611  0.36630079    -0.06000
C810        C  0.24828720  0.71446003  0.38782512    -0.00100
C811        C  0.25280069  0.73807347  0.39858857    -0.08600
C812        C  0.27717510  0.75819589  0.39591019    -0.06000
C813        C  0.29651282  0.75683357  0.37835409    -0.00100
C814        C  0.28959840  0.73479827  0.35951811    -0.08500
C815        C  0.30518145  0.73142161  0.33183379     0.61800
H816        H  0.26204683  0.69711946  0.35316675     0.12500
H817        H  0.28039208  0.77565712  0.40557684     0.12500
C818        C  0.23277080  0.74398675  0.40957855     0.62100
F819        F  0.29040187  0.71828403  0.30392878    -0.23100
F820        F  0.31553099  0.71820087  0.34647524    -0.20400
F821        F  0.32343221  0.75328377  0.31777574    -0.20100
F822        F  0.23241322  0.74546249  0.44587973    -0.20200
F823        F  0.20958777  0.72697906  0.39776686    -0.20500
F824        F  0.23771432  0.76647939  0.39505466    -0.23200
C825        C  0.43477530  0.60594064  0.42531447    -0.06000
C826        C  0.43831387  0.62309853  0.39837418    -0.00100
C827        C  0.41864341  0.61758409  0.37438684    -0.08600
C828        C  0.39642369  0.59487907  0.37812222    -0.06000
C829        C  0.39272183  0.57780855  0.40536168    -0.00100
C830        C  0.41209464  0.58379884  0.43011862    -0.08500
C831        C  0.40844802  0.56827906  0.46320018     0.61800
H832        H  0.44989514  0.61045874  0.44342397     0.12500
H833        H  0.38142191  0.59029934  0.35976324     0.12500
C834        C  0.42073274  0.63525216  0.34476804     0.62100
F835        F  0.42833312  0.57950662  0.48591661    -0.23100
F836        F  0.40580874  0.54573446  0.45492901    -0.20400
F837        F  0.38763471  0.56495564  0.48095382    -0.20100
F838        F  0.44252440  0.64322738  0.32608380    -0.20200
F839        F  0.42019295  0.65526282  0.35857534    -0.20500
F840        F  0.40130609  0.62426566  0.32124003    -0.23200
C841        C  0.53366948  0.85545628  0.32945331    -0.06000
C842        C  0.50856234  0.83730349  0.32862513    -0.00100
C843        C  0.49285297  0.83881322  0.30296937    -0.08600
C844        C  0.50272733  0.85892678  0.27919943    -0.06000
C845        C  0.52743428  0.87809857  0.28132702    -0.00100
C846        C  0.54342605  0.87620390  0.30648423    -0.08500
C847        C  0.57016021  0.89637720  0.31033938     0.61800
H848        H  0.54526868  0.85380809  0.34952029     0.12500
H849        H  0.49065695  0.86050598  0.25988297     0.12500
C850        C  0.46537501  0.82035218  0.30244206     0.62100
F851        F  0.58195558  0.89125405  0.33757012    -0.23100
F852        F  0.57105062  0.91843772  0.31740004    -0.20400
F853        F  0.58305737  0.89882885  0.27950791    -0.20100
F854        F  0.45417902  0.82399979  0.33129632    -0.20200
F855        F  0.46158573  0.79659898  0.30365894    -0.20500
F856        F  0.45410902  0.82297269  0.27236035    -0.23200
C857        C  0.52758557  0.86827789  0.42701999    -0.06000
C858        C  0.51889189  0.84510685  0.44351655    -0.00100
C859        C  0.52069201  0.84359459  0.48090121    -0.08600
C860        C  0.53219376  0.86598295  0.99846641    -0.06000
C861        C  0.53624512  0.88800745  0.48355746    -0.00100
C862        C  0.53623540  0.88981971  0.44639244    -0.08500
C863        C  0.54518827  0.91435164  0.42718661     0.61800
H864        H  0.52675057  0.86937525  0.39859817     0.12500
H865        H  0.53446022  0.86593140  0.02679920     0.12500
C866        C  0.51113404  0.81972846  0.00225555     0.62100
F867        F  0.54920290  0.91282353  0.39167698    -0.23100
F868        F  0.56732467  0.93193041  0.44146749    -0.20400
F869        F  0.52771697  0.92183583  0.43019027    -0.20100
F870        F  0.52990178  0.81184538  0.49580259    -0.20200
F871        F  0.48854283  0.80141396  0.99035507    -0.20500
F872        F  0.50787377  0.82327179  0.03731868    -0.23200
C873        C  0.42095844  0.77698494  0.37513729    -0.06000
C874        C  0.43852463  0.79464550  0.39753456    -0.00100
C875        C  0.43154939  0.80933102  0.41734083    -0.08600
C876        C  0.40821781  0.80737971  0.41123288    -0.06000
C877        C  0.39085808  0.79030345  0.38785262    -0.00100
C878        C  0.39709791  0.77404775  0.37045524    -0.08500
C879        C  0.37913189  0.75337900  0.34732420     0.61800
H880        H  0.42627455  0.76549654  0.36078666     0.12500
H881        H  0.40339412  0.81944388  0.42503706     0.12500
C882        C  0.44775389  0.82625529  0.44608754     0.62100
F883        F  0.39078220  0.74350511  0.32776158    -0.23100
F884        F  0.36792085  0.76180672  0.32384515    -0.20400
F885        F  0.36156776  0.73468319  0.36839084    -0.20100
F886        F  0.46557734  0.84841945  0.43165506    -0.20200
F887        F  0.45897246  0.81533392  0.46486066    -0.20500
F888        F  0.43391555  0.83114715  0.46981139    -0.23200
C889        C  0.48606378  0.74454079  0.42412717    -0.06000
C890        C  0.49965844  0.76217655  0.39770867    -0.00100
C891        C  0.51768541  0.75899379  0.37906453    -0.08600
C892        C  0.51520822  0.73535769  0.37888612    -0.06000
C893        C  0.49810369  0.71590098  0.40092497    -0.00100
C894        C  0.48593896  0.72205880  0.42750732    -0.08500
C895        C  0.47273989  0.70675093  0.46033323     0.61800
H896        H  0.47541708  0.74846851  0.44290338     0.12500
H897        H  0.52820829  0.73285655  0.36307308     0.12500
C898        C  0.54133781  0.77978337  0.36279038     0.62100
F899        F  0.48294703  0.72103715  0.48973478    -0.23100
F900        F  0.47447271  0.68579112  0.46535310    -0.20400
F901        F  0.44793101  0.70001158  0.45879971    -0.20100
F902        F  0.54638569  0.80275727  0.37362363    -0.20200
F903        F  0.53983546  0.77884670  0.32642390    -0.20500
F904        F  0.56130465  0.77705826  0.37307237    -0.23200
C905        C  0.35712497  0.47173421  0.31490209    -0.06000
C906        C  0.37775549  0.48815006  0.29435867    -0.00100
C907        C  0.38640323  0.51393241  0.29655574    -0.08600
C908        C  0.37616484  0.52223908  0.32220768    -0.06000
C909        C  0.35667105  0.50591088  0.34394501    -0.00100
C910        C  0.34591436  0.48020420  0.33912361    -0.08500
C911        C  0.32279968  0.46181989  0.35931296     0.61800
H912        H  0.35007303  0.45217653  0.31229137     0.12500
H913        H  0.38361046  0.54178570  0.32596863     0.12500
C914        C  0.40683721  0.53303723  0.27296479     0.62100
F915        F  0.30317668  0.46535533  0.35031831    -0.23100
F916        F  0.32658520  0.46469725  0.39514646    -0.20400
F917        F  0.31615255  0.43777678  0.35173621    -0.20100
F918        F  0.40181163  0.52654842  0.23799359    -0.20200
F919        F  0.42918021  0.53478858  0.28238622    -0.20500
F920        F  0.40901776  0.55606921  0.27589663    -0.23200
C921        C  0.51252068  0.36324178  0.25908988    -0.06000
C922        C  0.48756016  0.35673535  0.25462223    -0.00100
C923        C  0.47290250  0.33798389  0.23060155    -0.08600
C924        C  0.48449059  0.32782887  0.21004354    -0.06000
C925        C  0.50990616  0.33575420  0.21308433    -0.00100
C926        C  0.52390600  0.35298955  0.23901893    -0.08500
C927        C  0.55074494  0.36051359  0.24573727     0.61800
H928        H  0.52339561  0.37706260  0.27821749     0.12500
H929        H  0.47403123  0.31431838  0.19032855     0.12500
C930        C  0.44561352  0.32938257  0.22567531     0.62100
F931        F  0.56043418  0.37623214  0.27385514    -0.23100
F932        F  0.56478954  0.37257130  0.21639450    -0.20400
F933        F  0.55258769  0.33976661  0.25334403    -0.20100
F934        F  0.44243551  0.34912674  0.21622670    -0.20200
F935        F  0.43299956  0.31883095  0.25682724    -0.20500
F936        F  0.43530955  0.31200288  0.19958787    -0.23200
C937        C  0.36643858  0.48715188  0.44709423    -0.06000
C938        C  0.35380512  0.49863665  0.46134914    -0.00100
C939        C  0.35061499  0.49773357  0.49871212    -0.08600
C940        C  0.35763151  0.48654994  0.01959832    -0.06000
C941        C  0.37455898  0.47620847  0.50532916    -0.00100
C942        C  0.37665800  0.47577156  0.46839987    -0.08500
C943        C  0.39071109  0.46428256  0.45182897     0.61800
H944        H  0.36896433  0.48768875  0.41885617     0.12500
H945        H  0.35768443  0.48827326  0.04795786     0.12500
C946        C  0.33645774  0.50844408  0.51695160     0.62100
F947        F  0.39116107  0.46615642  0.41538470    -0.23100
F948        F  0.36954633  0.43350873  0.96574978    -0.20400
F949        F  0.41495084  0.47591753  0.46350348    -0.20100
F950        F  0.30866151  0.49506431  0.01149028    -0.20200
F951        F  0.34459053  0.53224139  0.50519779    -0.20500
F952        F  0.33897796  0.51266505  0.05098676    -0.23200
C953        C  0.50731553  0.35767191  0.03899145    -0.06000
C954        C  0.49024914  0.36413936  0.05208537    -0.00100
C955        C  0.48150042  0.35775341  0.08720654    -0.08600
C956        C  0.49128272  0.34610311  0.10871349    -0.06000
C957        C  0.50872409  0.34010627  0.09580639    -0.00100
C958        C  0.51651047  0.34531847  0.06007695    -0.08500
C959        C  0.53476375  0.33851739  0.04423847     0.61800
H960        H  0.51361402  0.36269356  0.01193445     0.12500
H961        H  0.48558266  0.34179150  0.13605239     0.12500
C962        C  0.46258695  0.36383667  0.10220867     0.62100
F963        F  0.56314609  0.37360887  0.52455023    -0.23100
F964        F  0.52404039  0.31323400  0.04277533    -0.20400
F965        F  0.55599251  0.34769241  0.06433647    -0.20100
F966        F  0.44046747  0.35089517  0.08441442    -0.20200
F967        F  0.47100298  0.38880180  0.09852096    -0.20500
F968        F  0.45806666  0.35754991  0.13768401    -0.23200
C969        C  0.53331858  0.64516839  0.28933116    -0.06000
C970        C  0.51512859  0.62060420  0.28419544    -0.00100
C971        C  0.49105217  0.61178276  0.29852128    -0.08600
C972        C  0.48654216  0.62748657  0.31899381    -0.06000
C973        C  0.50521064  0.65114207  0.32712628    -0.00100
C974        C  0.52864420  0.66101706  0.30995880    -0.08500
C975        C  0.54856789  0.68780452  0.31276541     0.61800
H976        H  0.55132994  0.65175261  0.27721102     0.12500
H977        H  0.46847259  0.62077304  0.33092717     0.12500
C978        C  0.47034251  0.58549588  0.29444844     0.62100
F979        F  0.56999732  0.69275237  0.29485429    -0.23100
F980        F  0.55463731  0.69388232  0.34754897    -0.20400
F981        F  0.54014706  0.70267126  0.29796764    -0.20100
F982        F  0.47831740  0.56923971  0.30493669    -0.20200
F983        F  0.46298869  0.58172289  0.25959663    -0.20500
F984        F  0.44988669  0.58039050  0.31499042    -0.23200
C985        C  0.65150690  0.50615708  0.25258515    -0.06000
C986        C  0.62573395  0.49020958  0.25443043    -0.00100
C987        C  0.61560632  0.46640796  0.23957212    -0.08600
C988        C  0.63141753  0.46053029  0.22112414    -0.06000
C989        C  0.65649922  0.47751461  0.21569999    -0.00100
C990        C  0.66733477  0.50001807  0.23407860    -0.08500
C991        C  0.69521535  0.51695311  0.23586631     0.61800
H992        H  0.65919158  0.52364919  0.26563233     0.12500
H993        H  0.62387056  0.44294535  0.20833381     0.12500
C994        C  0.58820408  0.44723425  0.24165074     0.62100
F995        F  0.70127798  0.53833759  0.25361750    -0.23100
F996        F  0.70564606  0.52362340  0.20264188    -0.20400
F997        F  0.70568502  0.50496286  0.25390521    -0.20100
F998        F  0.57456713  0.45549046  0.22265252    -0.20200
F999        F  0.58034270  0.44272581  0.27643445    -0.20500
F1000       F  0.58335966  0.42500548  0.22764317    -0.23200
C1001       C  0.53704097  0.63027291  0.47105392    -0.06000
C1002       C  0.52253037  0.62132653  0.50180127    -0.00100
C1003       C  0.50085352  0.62875585  0.01047600    -0.08600
C1004       C  0.49880799  0.64069119  0.48168135    -0.06000
C1005       C  0.51237540  0.64828986  0.45011040    -0.00100
C1006       C  0.53222706  0.64361186  0.44494050    -0.08500
C1007       C  0.54848780  0.65296986  0.41233015     0.61800
H1008       H  0.55168097  0.62589842  0.46694759     0.12500
H1009       H  0.48375116  0.64456689  0.48508291     0.12500
C1010       C  0.48317848  0.61910788  0.04176796     0.62100
F1011       F  0.56704047  0.64676100  0.41276509    -0.23100
F1012       F  0.55952408  0.67831902  0.41046676    -0.20400
F1013       F  0.53440605  0.64296294  0.38266815    -0.20100
F1014       F  0.49627026  0.62400648  0.07294638    -0.20200
F1015       F  0.46764292  0.59402216  0.03894825    -0.20500
F1016       F  0.46865989  0.63024012  0.04331713    -0.23200
C1017       C  0.64453309  0.51888569  0.07876000    -0.06000
C1018       C  0.63944881  0.50895896  0.04516956    -0.00100
C1019       C  0.64862534  0.49334542  0.03463918    -0.08600
C1020       C  0.66097258  0.48646800  0.05972891    -0.06000
C1021       C  0.66336779  0.49405205  0.09481044    -0.00100
C1022       C  0.65626198  0.51158195  0.10401300    -0.08500
C1023       C  0.66096698  0.52269817  0.14013430     0.61800
H1024       H  0.63766504  0.53115735  0.08587860     0.12500
H1025       H  0.66754173  0.47396328  0.05267017     0.12500
C1026       C  0.64545081  0.48419028  0.99716402     0.62100
F1027       F  0.65749503  0.54293456  0.14085550    -0.23100
F1028       F  0.68515319  0.53043025  0.14949313    -0.20400
F1029       F  0.64491396  0.50552932  0.16432141    -0.20100
F1030       F  0.58209080  0.44623671  0.51968355    -0.20200
F1031       F  0.62079589  0.46769882  0.99081302    -0.20500
F1032       F  0.65901692  0.47246795  0.99102819    -0.23200
In1033     In  0.58806984  0.51833296  0.98898587     1.36900
C1034       C  0.60315152  0.52889014  0.92290411     0.77400
O1035       O  0.55739519  0.48572821  0.96285767    -0.61100
O1036       O  0.55553062  0.48770638  0.01845350    -0.52000
C1037       C  0.60973648  0.50032354  0.52331280     0.70000
O1038       O  0.61857567  0.51651552  0.49894175    -0.46800
C1039       C  0.56994955  0.54322893  0.50611898     0.74700
O1040       O  0.60450812  0.51248354  0.94075809    -0.58700
O1041       O  0.58889075  0.54253414  0.51680839    -0.48800
O1042       O  0.59757469  0.54249463  0.94011859    -0.55100
C1043       C  0.54556881  0.47597836  0.99088844     0.84900
O1044       O  0.58685493  0.49108701  0.52790332    -0.57000
O1045       O  0.56373168  0.53482440  0.98757741    -0.60300
In1046     In  0.53197925  0.56980967  0.55990363     1.36900
C1047       C  0.54509288  0.57730429  0.62724578     0.77400
O1048       O  0.49254504  0.54702103  0.57973931    -0.61100
O1049       O  0.50599052  0.53161754  0.54235561    -0.52000
C1050       C  0.52669674  0.60435525  0.52506573     0.70000
O1051       O  0.54725024  0.60482327  0.52707512    -0.46800
C1052       C  0.55964494  0.55692972  0.52322146     0.74700
O1053       O  0.54744447  0.59467560  0.60713047    -0.58700
O1054       O  0.56656024  0.56672478  0.55296851    -0.48800
O1055       O  0.53815364  0.55720132  0.61225627    -0.55100
C1056       C  0.48825899  0.52873438  0.56145384     0.84900
O1057       O  0.50927916  0.59195425  0.04943682    -0.57000
O1058       O  0.54057842  0.55660489  0.51111695    -0.60300
In1059     In  0.58846728  0.51741665  0.81857431     1.36900
C1060       C  0.57324665  0.54666661  0.78944445     0.77400
O1061       O  0.55762297  0.48646404  0.78848732    -0.61100
O1062       O  0.55644388  0.48493817  0.84446848    -0.52000
C1063       C  0.62267148  0.51263085  0.78361870     0.70000
O1064       O  0.62465951  0.53341353  0.78903970    -0.46800
C1065       C  0.60291733  0.52842281  0.88461747     0.74700
O1066       O  0.56205865  0.53162216  0.81433026    -0.58700
O1067       O  0.59737844  0.54175561  0.86577972    -0.48800
O1068       O  0.59330709  0.54785966  0.78001206    -0.55100
C1069       C  0.54621461  0.47489263  0.81608898     0.84900
O1070       O  0.60360024  0.49463137  0.79668381    -0.57000
O1071       O  0.60399231  0.51160164  0.86858092    -0.60300
In1072     In  0.53523058  0.57415018  0.73346842     1.36900
C1073       C  0.56185907  0.55947447  0.77131725     0.77400
O1074       O  0.50445835  0.54170069  0.76138727    -0.61100
O1075       O  0.49872268  0.54808301  0.70799379    -0.52000
C1076       C  0.52786406  0.60821131  0.76250308     0.70000
O1077       O  0.54871037  0.60929934  0.76466293    -0.46800
C1078       C  0.54652441  0.57861917  0.66570264     0.74700
O1079       O  0.57144967  0.57443773  0.74559015    -0.58700
O1080       O  0.54226523  0.55997354  0.68422617    -0.48800
O1081       O  0.54013534  0.55428725  0.77897837    -0.55100
C1082       C  0.49021081  0.53474442  0.73532450     0.84900
O1083       O  0.51288118  0.59200576  0.74240393    -0.57000
O1084       O  0.54836249  0.59662739  0.68269239    -0.60300
In1085     In  0.47837269  0.41174970  0.98937623     1.36900
C1086       C  0.44368185  0.41853498  0.51276504     0.77400
O1087       O  0.50196541  0.43587742  0.51169346    -0.61100
O1088       O  0.51246432  0.44164038  0.96288985    -0.52000
C1089       C  0.48288184  0.37234910  0.52204132     0.70000
O1090       O  0.46104816  0.36556693  0.51173034    -0.46800
C1091       C  0.46679746  0.39656960  0.92316461     0.74700
O1092       O  0.44469018  0.40034902  0.52615451    -0.58700
O1093       O  0.45639852  0.40639517  0.93933031    -0.48800
O1094       O  0.46741982  0.44001151  0.99525035    -0.55100
C1095       C  0.51428077  0.44523911  0.48382655     0.84900
O1096       O  0.50213754  0.39820906  0.01291627    -0.57000
O1097       O  0.48049814  0.39163885  0.94205429    -0.60300
In1098     In  0.42277197  0.46283151  0.56451297     1.36900
C1099       C  0.43267237  0.43172583  0.53023939     0.77400
O1100       O  0.46158204  0.48732674  0.54514691    -0.61100
O1101       O  0.44651396  0.50229784  0.58066929    -0.52000
C1102       C  0.38992474  0.47027841  0.52888683     0.70000
O1103       O  0.38670916  0.44887107  0.53428285    -0.46800
C1104       C  0.41681005  0.45431788  0.63381859     0.74700
O1105       O  0.43441322  0.45103101  0.51651976    -0.58700
O1106       O  0.43589704  0.45818238  0.61713417    -0.48800
O1107       O  0.42345040  0.42671230  0.56096180    -0.55100
C1108       C  0.46482489  0.50564165  0.56240959     0.84900
O1109       O  0.40863375  0.48708735  0.54355012    -0.57000
O1110       O  0.39914090  0.45210259  0.61465409    -0.60300
In1111     In  0.47941022  0.41013408  0.81753601     1.36900
C1112       C  0.46712928  0.39570814  0.88462521     0.77400
O1113       O  0.51132121  0.44141635  0.84397285    -0.61100
O1114       O  0.51205502  0.44080891  0.78807000    -0.52000
C1115       C  0.48674220  0.37892566  0.77821424     0.70000
O1116       O  0.46706905  0.38020006  0.77671082    -0.46800
C1117       C  0.45162464  0.42819204  0.79087081     0.74700
O1118       O  0.48367326  0.39372016  0.86858941    -0.58700
O1119       O  0.47126924  0.44042265  0.80789488    -0.48800
O1120       O  0.45412143  0.40126320  0.86514206    -0.55100
C1121       C  0.52271545  0.45174644  0.81585477     0.84900
O1122       O  0.50158650  0.39233713  0.80131079    -0.57000
O1123       O  0.44507521  0.40564007  0.78783979    -0.60300
In1124     In  0.42475862  0.46899683  0.73970208     1.36900
C1125       C  0.41726779  0.45576170  0.67243906     0.77400
O1126       O  0.45224245  0.50377620  0.71050443    -0.61100
O1127       O  0.45841667  0.49932451  0.76454996    -0.52000
C1128       C  0.39332177  0.47976854  0.77305993     0.70000
O1129       O  0.40818240  0.49273733  0.74916340    -0.46800
C1130       C  0.43932320  0.44084510  0.77455978     0.74700
O1131       O  0.40008209  0.45503887  0.69109501    -0.58700
O1132       O  0.44847748  0.46359645  0.77826447    -0.48800
O1133       O  0.43674713  0.46084577  0.68902787    -0.55100
C1134       C  0.46619735  0.51228944  0.73679963     0.84900
O1135       O  0.39239246  0.45923793  0.77776568    -0.57000
O1136       O  0.42065387  0.43123377  0.75455878    -0.60300
C1137       C  0.49046207  0.78167213  0.89601341     0.86300
C1138       C  0.49639133  0.79518343  0.85984723    -0.54000
C1139       C  0.49383355  0.81561487  0.85925306     0.09200
C1140       C  0.48411690  0.81999670  0.89388524     0.20100
C1141       C  0.50626765  0.80154715  0.92265923    -0.54700
C1142       C  0.50292587  0.82159866  0.92186055     0.09300
C1143       C  0.46351519  0.77580840  0.90307804    -0.54200
C1144       C  0.46009850  0.79579452  0.90213831     0.09900
H1145       H  0.50275835  0.78973987  0.83697761     0.14400
H1146       H  0.48155324  0.83631270  0.89216004     0.00100
H1147       H  0.51966431  0.80012002  0.93947552     0.14700
H1148       H  0.44805247  0.75726041  0.90654272     0.14500
C1149       C  0.49092414  0.68747517  0.89426009     0.86300
C1150       C  0.50467126  0.68256321  0.92427142    -0.54000
C1151       C  0.50269022  0.65998046  0.92378864     0.09200
C1152       C  0.48762489  0.64424916  0.89288132     0.20100
C1153       C  0.50162129  0.68288424  0.86012223    -0.54700
C1154       C  0.50037583  0.66038380  0.85967906     0.09300
C1155       C  0.46410031  0.66569658  0.89499964    -0.54200
C1156       C  0.46221531  0.64300962  0.89471231     0.09900
H1157       H  0.51425286  0.69551659  0.94512399     0.14400
H1158       H  0.48621557  0.62581740  0.89325431     0.00100
H1159       H  0.50763885  0.69517953  0.83739507     0.14700
H1160       H  0.44799227  0.66810317  0.89641160     0.14500
C1161       C  0.22286166  0.69345308  0.89148729     0.86300
C1162       C  0.20458012  0.68682081  0.86050797    -0.54000
C1163       C  0.18293682  0.66495207  0.86479803     0.09200
C1164       C  0.18206706  0.65144158  0.89989266     0.20100
C1165       C  0.20809587  0.69145544  0.92521274    -0.54700
C1166       C  0.18645162  0.66991118  0.92883140     0.09300
C1167       C  0.22683345  0.67091280  0.89515114    -0.54200
C1168       C  0.20551195  0.64887841  0.89935366     0.09900
H1169       H  0.20928000  0.69805618  0.83670499     0.14400
H1170       H  0.16481509  0.63371566  0.90479093     0.00100
H1171       H  0.21447513  0.70522540  0.94537594     0.14700
H1172       H  0.24481442  0.67202385  0.89326887     0.14500
C1173       C  0.32201458  0.78258426  0.88241508     0.86300
C1174       C  0.32817903  0.80025100  0.91393656    -0.54000
C1175       C  0.35201332  0.81947519  0.91355277     0.09200
C1176       C  0.36736676  0.81943534  0.88194594     0.20100
C1177       C  0.32867893  0.79981936  0.84980477    -0.54700
C1178       C  0.35237238  0.81885855  0.84940076     0.09300
C1179       C  0.34215220  0.77499443  0.88562517    -0.54200
C1180       C  0.36602448  0.79412464  0.88453591     0.09900
H1181       H  0.31531179  0.79812099  0.93465827     0.14400
H1182       H  0.38652043  0.83534368  0.88126376     0.00100
H1183       H  0.31549720  0.79744493  0.82922768     0.14700
H1184       H  0.33739111  0.75620325  0.89154192     0.14500
C1185       C  0.22585213  0.53095223  0.88510935     0.86300
C1186       C  0.20938574  0.51940631  0.91843124    -0.54000
C1187       C  0.18777072  0.52002741  0.91804540     0.09200
C1188       C  0.18415554  0.53192500  0.88443287     0.20100
C1189       C  0.20791066  0.51587372  0.85511623    -0.54700
C1190       C  0.18606900  0.51658774  0.85442384     0.09300
C1191       C  0.22891953  0.55692115  0.88197265    -0.54200
C1192       C  0.20726719  0.55751171  0.88140779     0.09900
H1193       H  0.21418121  0.51138106  0.94054841     0.14400
H1194       H  0.16667814  0.53275057  0.88468833     0.00100
H1195       H  0.21133146  0.50415444  0.83820578     0.14700
H1196       H  0.24687467  0.57357849  0.88200219     0.14500
C1197       C  0.32054423  0.52785779  0.90080915     0.86300
C1198       C  0.32528498  0.51536116  0.86912887    -0.54000
C1199       C  0.34670471  0.51445768  0.87118400     0.09200
C1200       C  0.36180981  0.52603773  0.90454493     0.20100
C1201       C  0.32170420  0.51231998  0.93243328    -0.54700
C1202       C  0.34350935  0.51166599  0.93484685     0.09300
C1203       C  0.34437555  0.55320858  0.90294113    -0.54200
C1204       C  0.36600460  0.55245241  0.90540480     0.09900
H1205       H  0.31277925  0.50722544  0.84722331     0.14400
H1206       H  0.37934740  0.52536751  0.90517324     0.00100
H1207       H  0.30591248  0.50109866  0.94916095     0.14700
H1208       H  0.34410186  0.57045335  0.90167959     0.14500
In1209     In  0.54132955  0.94240952  0.54833969     1.36900
C1210       C  0.56909698  0.98886535  0.52612401     0.77400
O1211       O  0.50676449  0.93542661  0.52013657    -0.61100
O1212       O  0.50836465  0.94072939  0.57541645    -0.52000
C1213       C  0.53991031  0.90848286  0.50592078     0.70000
O1214       O  0.52868402  0.92022989  0.49998413    -0.46800
C1215       C  0.54817277  0.93379898  0.61474464     0.74700
O1216       O  0.57548875  0.97296855  0.52031771    -0.58700
O1217       O  0.52975494  0.91888768  0.59707462    -0.48800
O1218       O  0.55003503  0.98131831  0.54488538    -0.55100
C1219       C  0.49625684  0.93716901  0.54734761     0.84900
O1220       O  0.55292108  0.91459567  0.53345753    -0.57000
O1221       O  0.56467396  0.95191006  0.59736064    -0.60300
In1222     In  0.59977962  0.05570140  0.97705925     1.36900
C1223       C  0.58077926  0.01358133  0.51011219     0.77400
O1224       O  0.56570818  0.06002195  0.50111623    -0.61100
O1225       O  0.57262416  0.06480085  0.95148245    -0.52000
C1226       C  0.63035309  0.09534575  0.50745787     0.70000
O1227       O  0.62972968  0.07481073  0.50867496    -0.46800
C1228       C  0.60186154  0.04695253  0.90906381     0.74700
O1229       O  0.57057387  0.02655133  0.51256792    -0.58700
O1230       O  0.58455471  0.03276567  0.92951130    -0.48800
O1231       O  0.60526556  0.02285896  0.98826300    -0.55100
C1232       C  0.55386345  0.05802574  0.47323084     0.84900
O1233       O  0.61585588  0.09571961  0.98897915    -0.57000
O1234       O  0.61982547  0.06479917  0.92398460    -0.60300
In1235     In  0.53850527  0.93611740  0.72035585     1.36900
C1236       C  0.54782725  0.93226306  0.65328439     0.77400
O1237       O  0.50298686  0.92920890  0.69482999    -0.61100
O1238       O  0.51135665  0.94536574  0.74527527    -0.52000
C1239       C  0.53012786  0.89747312  0.76116758     0.70000
O1240       O  0.55071842  0.91035782  0.74566404    -0.46800
C1241       C  0.56801391  0.98032487  0.74613674     0.74700
O1242       O  0.56365726  0.94904276  0.67225529    -0.58700
O1243       O  0.56829533  0.96145833  0.75819024    -0.48800
O1244       O  0.52928844  0.91588833  0.66974040    -0.55100
C1245       C  0.49658350  0.93791623  0.71972463     0.84900
O1246       O  0.51486572  0.90486496  0.75602195    -0.57000
O1247       O  0.55486862  0.97676485  0.71917346    -0.60300
In1248     In  0.58821328  0.04306420  0.80229464     1.36900
C1249       C  0.59904147  0.04414576  0.87068676     0.77400
O1250       O  0.54905995  0.02950066  0.82257540    -0.61100
O1251       O  0.56306485  0.05620617  0.78137652    -0.52000
C1252       C  0.61960703  0.08588566  0.77155817     0.70000
O1253       O  0.62213969  0.06709521  0.76814918    -0.46800
C1254       C  0.57877608  0.00387260  0.76424382     0.74700
O1255       O  0.61515531  0.05805344  0.84834460    -0.58700
O1256       O  0.59064087  0.00831914  0.79271766    -0.48800
O1257       O  0.57870639  0.02873038  0.85762690    -0.55100
C1258       C  0.54538414  0.04333962  0.80189262     0.84900
O1259       O  0.60320789  0.08309314  0.79346984    -0.57000
O1260       O  0.57409117  0.02036757  0.75415546    -0.60300
In1261     In  0.42963174  0.93645009  0.54253501     1.36900
C1262       C  0.41855123  0.93677910  0.61035678     0.77400
O1263       O  0.46241505  0.93953439  0.57261071    -0.61100
O1264       O  0.46044312  0.93282382  0.51786554    -0.52000
C1265       C  0.39751321  0.89848128  0.50425321     0.70000
O1266       O  0.41142762  0.89699673  0.52713345    -0.46800
C1267       C  0.44459625  0.97981082  0.51063347     0.74700
O1268       O  0.41165669  0.91701790  0.59415196    -0.58700
O1269       O  0.45469484  0.96683345  0.50659448    -0.48800
O1270       O  0.42828066  0.95586424  0.59102667    -0.55100
C1271       C  0.47233117  0.93618633  0.54604122     0.84900
O1272       O  0.40540556  0.92182140  0.00639428    -0.57000
O1273       O  0.42519405  0.96995173  0.52951675    -0.60300
In1274     In  0.48953586  0.05241341  0.97353170     1.36900
C1275       C  0.48005291  0.05621502  0.90653760     0.77400
O1276       O  0.52638589  0.06258533  0.94933896    -0.61100
O1277       O  0.51821531  0.04635138  0.00072917    -0.52000
C1278       C  0.49168750  0.08856099  0.51561665     0.70000
O1279       O  0.48221510  0.08604163  0.48541875    -0.46800
C1280       C  0.45651109  0.00500267  0.49608411     0.74700
O1281       O  0.46372837  0.04037279  0.92696571    -0.58700
O1282       O  0.47576172  0.01277546  0.47760872    -0.48800
O1283       O  0.49976323  0.07162799  0.92128000    -0.55100
C1284       C  0.53354761  0.05527711  0.97570119     0.84900
O1285       O  0.49400040  0.07061763  0.52595276    -0.57000
O1286       O  0.45722986  0.02359490  0.00612466    -0.60300
In1287     In  0.43240212  0.94216504  0.71691680     1.36900
C1288       C  0.44617953  0.98620658  0.74331210     0.77400
O1289       O  0.46712713  0.94771980  0.74390803    -0.61100
O1290       O  0.45945902  0.93250754  0.69284199    -0.52000
C1291       C  0.40128883  0.90465243  0.75835197     0.70000
O1292       O  0.39471570  0.91899712  0.74410862    -0.46800
C1293       C  0.41923484  0.93809370  0.64901188     0.74700
O1294       O  0.42538083  0.96777034  0.75084294    -0.58700
O1295       O  0.42904823  0.95825958  0.66471543    -0.48800
O1296       O  0.45860919  0.98235457  0.72075060    -0.55100
C1297       C  0.47384574  0.93940585  0.71883295     0.84900
O1298       O  0.42333886  0.91025329  0.75207580    -0.57000
O1299       O  0.41342826  0.91965183  0.66883519    -0.60300
In1300     In  0.48254674  0.04945503  0.80006258     1.36900
C1301       C  0.45691363  0.00973939  0.76151620     0.77400
O1302       O  0.51981590  0.05881148  0.77975633    -0.61100
O1303       O  0.50510476  0.03332479  0.82295272    -0.52000
C1304       C  0.48258432  0.08777191  0.76929976     0.70000
O1305       O  0.46277174  0.06761262  0.77404542    -0.46800
C1306       C  0.47828745  0.05504955  0.86815537     0.74700
O1307       O  0.47780811  0.02726896  0.75257812    -0.58700
O1308       O  0.49527990  0.07109350  0.84900157    -0.48800
O1309       O  0.44769340  0.01331025  0.78894308    -0.55100
C1310       C  0.52279659  0.04504598  0.80158490     0.84900
O1311       O  0.50177896  0.08823350  0.78091976    -0.57000
O1312       O  0.46185562  0.03673089  0.85197788    -0.60300
In1313     In  0.94979470  0.41938818  0.81979108     1.36900
C1314       C  0.99291575  0.43069909  0.79009723     0.77400
O1315       O  0.95691040  0.45454802  0.79237975    -0.61100
O1316       O  0.94750602  0.44990642  0.84674407    -0.52000
C1317       C  0.90828740  0.39001078  0.78509636     0.70000
O1318       O  0.92040966  0.38154804  0.80142252    -0.46800
C1319       C  0.94691355  0.40578091  0.88690582     0.74700
O1320       O  0.97281953  0.41344231  0.77850201    -0.58700
O1321       O  0.93001774  0.40777906  0.87139430    -0.48800
O1322       O  0.99080158  0.44018438  0.81786045    -0.55100
C1323       C  0.95282049  0.46334841  0.81943232     0.84900
O1324       O  0.91811710  0.41296091  0.78619910    -0.57000
O1325       O  0.96394947  0.40744135  0.86708668    -0.60300
In1326     In  0.05805487  0.46931532  0.73466725     1.36900
C1327       C  0.01677584  0.44161764  0.77145926     0.77400
O1328       O  0.04598499  0.49558656  0.75324731    -0.61100
O1329       O  0.07584160  0.50932654  0.71688795    -0.52000
C1330       C  0.09782169  0.47440834  0.76941943     0.70000
O1331       O  0.07733440  0.45464252  0.77099860    -0.46800
C1332       C  0.05381735  0.45915953  0.66612761     0.74700
O1333       O  0.03502393  0.46080986  0.78285078    -0.58700
O1334       O  0.04185535  0.46755160  0.68179580    -0.48800
O1335       O  0.02023232  0.43479336  0.74184454    -0.55100
C1336       C  0.06157827  0.51362975  0.73517338     0.84900
O1337       O  0.09824682  0.49025790  0.74812214    -0.57000
O1338       O  0.06629121  0.45306900  0.68620749    -0.60300
In1339     In  0.95665108  0.42088332  0.99148723     1.36900
C1340       C  0.94853132  0.40631301  0.92532676     0.77400
O1341       O  0.95537783  0.45224215  0.96396354    -0.61100
O1342       O  0.95789446  0.45275596  0.01986738    -0.52000
C1343       C  0.90926625  0.38237387  0.52654082     0.70000
O1344       O  0.92614148  0.37789198  0.51714846    -0.46800
C1345       C  0.99425746  0.43188913  0.51249228     0.74700
O1346       O  0.96674628  0.40773695  0.94220655    -0.58700
O1347       O  0.98851649  0.44197606  0.48804271    -0.48800
O1348       O  0.93342127  0.40942902  0.94340349    -0.55100
C1349       C  0.95670146  0.46336570  0.99188785     0.84900
O1350       O  0.91288661  0.40325896  0.51723295    -0.57000
O1351       O  0.98451449  0.41774937  0.02804916    -0.60300
In1352     In  0.06271458  0.47231298  0.55890502     1.36900
C1353       C  0.05509832  0.46006789  0.62733895     0.77400
O1354       O  0.07675448  0.50967378  0.58256658    -0.61100
O1355       O  0.05742730  0.50211373  0.53407233    -0.52000
C1356       C  0.10416254  0.48119118  0.52403510     0.70000
O1357       O  0.08359140  0.46210630  0.51871475    -0.46800
C1358       C  0.01936716  0.44437747  0.52739189     0.74700
O1359       O  0.06857683  0.45455022  0.60892885    -0.58700
O1360       O  0.03452907  0.46616910  0.51814694    -0.48800
O1361       O  0.04440964  0.46949117  0.61012258    -0.55100
C1362       C  0.06824689  0.51724133  0.55817199     0.84900
O1363       O  0.11044712  0.50299585  0.04838449    -0.57000
O1364       O  0.02708138  0.43554909  0.55141263    -0.60300
In1365     In  0.95289627  0.52919352  0.81846469     1.36900
C1366       C  0.94904801  0.53815630  0.88545561     0.77400
O1367       O  0.94979933  0.49583391  0.84636125    -0.61100
O1368       O  0.95731473  0.49988584  0.79135667    -0.52000
C1369       C  0.91258881  0.52060614  0.78262558     0.70000
O1370       O  0.92694857  0.54172912  0.79466194    -0.46800
C1371       C  0.99705211  0.55822919  0.78909090     0.74700
O1372       O  0.93196705  0.52063511  0.86920446    -0.58700
O1373       O  0.99374437  0.54541360  0.81661923    -0.48800
O1374       O  0.96676429  0.55340279  0.86628536    -0.55100
C1375       C  0.95352788  0.48701743  0.81904782     0.84900
O1376       O  0.91932012  0.50496897  0.78871342    -0.57000
O1377       O  0.97784035  0.55810304  0.77759103    -0.60300
In1378     In  0.06136912  0.57962052  0.73403904     1.36900
C1379       C  0.05822162  0.58648130  0.66583857     0.77400
O1380       O  0.07750999  0.55580970  0.71718133    -0.61100
O1381       O  0.04719191  0.54068682  0.75285676    -0.52000
C1382       C  0.10155212  0.61200026  0.76780719     0.70000
O1383       O  0.10047779  0.59479950  0.75000296    -0.46800
C1384       C  0.02097322  0.56952952  0.77055763     0.74700
O1385       O  0.07253303  0.60414938  0.68499389    -0.58700
O1386       O  0.03872540  0.56746342  0.78298380    -0.48800
O1387       O  0.04392705  0.56683137  0.68217679    -0.55100
C1388       C  0.06231616  0.53736473  0.73515494     0.84900
O1389       O  0.08262996  0.61453809  0.76561785    -0.57000
O1390       O  0.02471708  0.57924887  0.74002325    -0.60300
In1391     In  0.95755212  0.52984103  0.99053006     1.36900
C1392       C  0.00051665  0.55675218  0.51150554     0.77400
O1393       O  0.95516519  0.49431775  0.51996814    -0.61100
O1394       O  0.95688327  0.49781095  0.96343106    -0.52000
C1395       C  0.91903903  0.52410499  0.53407403     0.70000
O1396       O  0.92510764  0.53657752  0.50566777    -0.46800
C1397       C  0.95007729  0.53778642  0.92397989     0.74700
O1398       O  0.98259647  0.55904622  0.52230933    -0.58700
O1399       O  0.96808300  0.55377887  0.94125198    -0.48800
O1400       O  0.99846531  0.54603538  0.98987583    -0.55100
C1401       C  0.95693391  0.48685209  0.99157445     0.84900
O1402       O  0.93139633  0.51222054  0.03526064    -0.57000
O1403       O  0.93470797  0.51924893  0.94177148    -0.60300
In1404     In  0.06731787  0.58246814  0.56007953     1.36900
C1405       C  0.02548722  0.56985747  0.52618782     0.77400
O1406       O  0.06035061  0.54794625  0.53397051    -0.61100
O1407       O  0.07898078  0.55614112  0.58307204    -0.52000
C1408       C  0.10867939  0.61848601  0.53063386     0.70000
O1409       O  0.08829388  0.61840266  0.52939791    -0.46800
C1410       C  0.05990687  0.58683958  0.62749422     0.74700
O1411       O  0.04279982  0.56734206  0.51357510    -0.58700
O1412       O  0.04778025  0.56729471  0.61075882    -0.48800
O1413       O  0.03063760  0.58176281  0.55438488    -0.55100
C1414       C  0.06961152  0.54119948  0.55828580     0.84900
O1415       O  0.10781583  0.60091586  0.54836863    -0.57000
O1416       O  0.07505151  0.60524440  0.60918947    -0.60300
C1417       C  0.53098270  0.20706901  0.64268660     0.86300
C1418       C  0.52323854  0.19308329  0.60762127    -0.54000
C1419       C  0.52346264  0.17123582  0.60797128     0.09200
C1420       C  0.53194966  0.16571672  0.64364377     0.20100
C1421       C  0.51381127  0.18801215  0.67080353    -0.54700
C1422       C  0.51397491  0.16629785  0.67071617     0.09300
C1423       C  0.55653521  0.20984937  0.65155272    -0.54200
C1424       C  0.55731712  0.18845399  0.65103800     0.09900
H1425       H  0.51881674  0.20063334  0.58469490     0.14400
H1426       H  0.53252206  0.14824428  0.64501037     0.00100
H1427       H  0.50330534  0.19143144  0.69046848     0.14700
H1428       H  0.57298741  0.22738313  0.65617518     0.14500
C1429       C  0.53296839  0.30293767  0.65390644     0.86300
C1430       C  0.51975665  0.30775410  0.68475037    -0.54000
C1431       C  0.52158772  0.33056221  0.68330415     0.09200
C1432       C  0.53662797  0.34650870  0.65139046     0.20100
C1433       C  0.52264508  0.30846777  0.62012037    -0.54700
C1434       C  0.52425962  0.33092863  0.61892247     0.09300
C1435       C  0.55975761  0.32469572  0.65724466    -0.54200
C1436       C  0.56179124  0.34745249  0.65448666     0.09900
H1437       H  0.51014015  0.29465058  0.70584178     0.14400
H1438       H  0.53806244  0.36495156  0.65005018     0.00100
H1439       H  0.51407416  0.29529026  0.59919810     0.14700
H1440       H  0.57579172  0.32251240  0.66240618     0.14500
C1441       C  0.79396334  0.47262461  0.65355289     0.86300
C1442       C  0.80816312  0.48075724  0.68857122    -0.54000
C1443       C  0.82994615  0.48035233  0.68868378     0.09200
C1444       C  0.83503248  0.47054469  0.65458753     0.20100
C1445       C  0.81281799  0.48853945  0.62488092    -0.54700
C1446       C  0.83424820  0.48739117  0.62477436     0.09300
C1447       C  0.79050941  0.44645204  0.64917401    -0.54200
C1448       C  0.81189798  0.44528838  0.64917819     0.09900
H1449       H  0.80218985  0.48734437  0.71068628     0.14400
H1450       H  0.85244934  0.46974248  0.65612539     0.00100
H1451       H  0.80950185  0.50047164  0.60751027     0.14700
H1452       H  0.77266959  0.42974567  0.64855795     0.14500
C1453       C  0.69664394  0.46989135  0.65337597     0.86300
C1454       C  0.68877454  0.47664256  0.61825977    -0.54000
C1455       C  0.66603451  0.47492736  0.61902273     0.09200
C1456       C  0.65282318  0.46626670  0.65502871     0.20100
C1457       C  0.69384516  0.48650620  0.68087489    -0.54700
C1458       C  0.67102880  0.48481964  0.68121540     0.09300
C1459       C  0.67540497  0.44406280  0.66381375    -0.54200
C1460       C  0.65235450  0.44188165  0.66392873     0.09900
H1461       H  0.70018642  0.48177980  0.59466872     0.14400
H1462       H  0.63421958  0.46465300  0.65549901     0.00100
H1463       H  0.70759948  0.49734527  0.70027357     0.14700
H1464       H  0.67817351  0.42839763  0.66858075     0.14500
C1465       C  0.79090586  0.30500311  0.65587323     0.86300
C1466       C  0.80963695  0.30935754  0.62637084    -0.54000
C1467       C  0.83055879  0.33169578  0.62699532     0.09200
C1468       C  0.83105333  0.34815151  0.65670755     0.20100
C1469       C  0.80566917  0.31072031  0.69098919    -0.54700
C1470       C  0.82711896  0.33311829  0.69104841     0.09300
C1471       C  0.78628730  0.32719772  0.65202119    -0.54200
C1472       C  0.80722847  0.34972084  0.65299199     0.09900
H1473       H  0.80623200  0.29610530  0.60597732     0.14400
H1474       H  0.84814795  0.36645446  0.65629853     0.00100
H1475       H  0.79851638  0.29949764  0.71456577     0.14700
H1476       H  0.76811164  0.32539690  0.64921732     0.14500
C1477       C  0.69685885  0.20900111  0.64425977     0.86300
C1478       C  0.69187921  0.19228772  0.67758333    -0.54000
C1479       C  0.67042491  0.17011066  0.67660495     0.09200
C1480       C  0.65541396  0.16704530  0.64250314     0.20100
C1481       C  0.69489197  0.19265412  0.61305909    -0.54700
C1482       C  0.67334704  0.17071866  0.61205354     0.09300
C1483       C  0.67332092  0.21149878  0.64300581    -0.54200
C1484       C  0.65164186  0.18969619  0.64140375     0.09900
H1485       H  0.70304237  0.19849105  0.70103112     0.14400
H1486       H  0.63774498  0.14934576  0.64101814     0.00100
H1487       H  0.70938116  0.19811807  0.59330210     0.14700
H1488       H  0.67359688  0.22890882  0.64497378     0.14500
C1489       C  0.74837673  0.27739483  0.62960088    -0.06000
C1490       C  0.76726408  0.27935820  0.65255026    -0.00100
C1491       C  0.76484704  0.25669456  0.66584307    -0.08600
C1492       C  0.74179552  0.23488783  0.66305215    -0.06000
C1493       C  0.72169137  0.23368689  0.64402010    -0.00100
C1494       C  0.72651782  0.25497201  0.62334073    -0.08500
C1495       C  0.71019890  0.25537416  0.59348291     0.61800
H1496       H  0.75122485  0.29341287  0.61440052     0.12500
H1497       H  0.73990316  0.21816811  0.67487310     0.12500
C1498       C  0.78597617  0.25407704  0.68174641     0.62100
F1499       F  0.72478245  0.26984518  0.56560123    -0.23100
F1500       F  0.69600292  0.26529446  0.60520427    -0.20400
F1501       F  0.69499205  0.23242760  0.58005106    -0.20100
F1502       F  0.78713629  0.25800462  0.71753879    -0.20200
F1503       F  0.80829297  0.27007267  0.66578460    -0.20500
F1504       F  0.78239480  0.23062206  0.67702013    -0.23200
C1505       C  0.79702590  0.40355490  0.67533184    -0.06000
C1506       C  0.81158538  0.42112244  0.64936132    -0.00100
C1507       C  0.82407718  0.41471121  0.62395808    -0.08600
C1508       C  0.82184489  0.39111650  0.62611161    -0.06000
C1509       C  0.80738154  0.37369052  0.65218125    -0.00100
C1510       C  0.79510645  0.38015317  0.67785339    -0.08500
C1511       C  0.78063999  0.36303147  0.70855890     0.61800
H1512       H  0.78727954  0.40853454  0.69419483     0.12500
H1513       H  0.83140937  0.38597649  0.60719392     0.12500
C1514       C  0.83874286  0.43197396  0.59365958     0.62100
F1515       F  0.77471642  0.37505965  0.73375012    -0.23100
F1516       F  0.79444766  0.35392428  0.72496309    -0.20400
F1517       F  0.75875620  0.34367363  0.69669968    -0.20100
F1518       F  0.85997969  0.45184823  0.60609068    -0.20200
F1519       F  0.82441730  0.44012977  0.57644483    -0.20500
F1520       F  0.84581927  0.42042872  0.56918660    -0.23200
C1521       C  0.74978811  0.45595708  0.63269774    -0.06000
C1522       C  0.76995421  0.47432352  0.65121918    -0.00100
C1523       C  0.76718785  0.49425237  0.66368213    -0.08600
C1524       C  0.74327375  0.49165095  0.66462400    -0.06000
C1525       C  0.72223002  0.47145604  0.65008870    -0.00100
C1526       C  0.72645636  0.45445039  0.63065259    -0.08500
C1527       C  0.70802580  0.43404922  0.60703012     0.61800
H1528       H  0.75236006  0.44285571  0.61773889     0.12500
H1529       H  0.74175796  0.50680259  0.67496982     0.12500
C1530       C  0.78811863  0.51930127  0.67469277     0.62100
F1531       F  0.71914387  0.43568159  0.57475509    -0.23100
F1532       F  0.68664901  0.43472631  0.59995733    -0.20400
F1533       F  0.70171449  0.41149011  0.62260871    -0.20100
F1534       F  0.78596171  0.53755525  0.65642858    -0.20200
F1535       F  0.81155491  0.52320205  0.66773626    -0.20500
F1536       F  0.78605759  0.52212600  0.71037438    -0.23200
C1537       C  0.58753239  0.38734885  0.68335657    -0.06000
C1538       C  0.58571700  0.37093625  0.65713059    -0.00100
C1539       C  0.60650190  0.37755053  0.63472547    -0.08600
C1540       C  0.62765039  0.40068965  0.63861566    -0.06000
C1541       C  0.62927614  0.41734670  0.66408256    -0.00100
C1542       C  0.60928481  0.41014793  0.68804909    -0.08500
C1543       C  0.61134378  0.42542133  0.71979064     0.61800
H1544       H  0.57177193  0.38199269  0.70065399     0.12500
H1545       H  0.64313814  0.40602993  0.62081828     0.12500
C1546       C  0.60802442  0.36188502  0.60569428     0.62100
F1547       F  0.59228445  0.41234785  0.74377691    -0.23100
F1548       F  0.61045203  0.44625126  0.70934401    -0.20400
F1549       F  0.63340038  0.43211926  0.73694555    -0.20100
F1550       F  0.58613325  0.34077019  0.59922191    -0.20200
F1551       F  0.62556341  0.35527291  0.61483464    -0.20500
F1552       F  0.61533320  0.37551435  0.57448562    -0.23200
C1553       C  0.59141223  0.18894166  0.61671825    -0.06000
C1554       C  0.58127400  0.18826848  0.64992824    -0.00100
C1555       C  0.59424396  0.18797914  0.68056178    -0.08600
C1556       C  0.61714898  0.18846664  0.67680234    -0.06000
C1557       C  0.62692870  0.18839316  0.64346083    -0.00100
C1558       C  0.61373757  0.18844363  0.61293689    -0.08500
C1559       C  0.62289773  0.18731744  0.57654128     0.61800
H1560       H  0.58153392  0.18974415  0.59358999     0.12500
H1561       H  0.62769256  0.18904363  0.69993089     0.12500
C1562       C  0.58382826  0.18713715  0.71689036     0.62100
F1563       F  0.60779305  0.18818226  0.55025076    -0.23100
F1564       F  0.62320982  0.16549190  0.57380604    -0.20400
F1565       F  0.64647033  0.20689484  0.57109024    -0.20100
F1566       F  0.56040938  0.16688699  0.71986411    -0.20200
F1567       F  0.58245680  0.20828961  0.72193860    -0.20500
F1568       F  0.59833882  0.18528823  0.74327856    -0.23200
C1569       C  0.50967389  0.23231298  0.65440237    -0.06000
C1570       C  0.53057153  0.23164079  0.64123384    -0.00100
C1571       C  0.55006737  0.25404808  0.62669158    -0.08600
C1572       C  0.55048356  0.27623094  0.63403800    -0.06000
C1573       C  0.53094860  0.27731167  0.65144298    -0.00100
C1574       C  0.50882508  0.25436344  0.65782493    -0.08500
C1575       C  0.48389314  0.25171534  0.66819625     0.61800
H1576       H  0.49317628  0.21518924  0.66097376     0.12500
H1577       H  0.56589072  0.29297454  0.62348003     0.12500
C1578       C  0.57047995  0.25632793  0.60202730     0.62100
F1579       F  0.46459619  0.22979666  0.65619708    -0.23100
F1580       F  0.48030843  0.27014886  0.65371853    -0.20400
F1581       F  0.48209221  0.25151782  0.70451925    -0.20100
F1582       F  0.56629684  0.23426728  0.58865829    -0.20200
F1583       F  0.59285089  0.26715204  0.61959779    -0.20500
F1584       F  0.57240175  0.27122786  0.57332710    -0.23200
C1585       C  0.87537226  0.51290327  0.54201314    -0.06000
C1586       C  0.89868531  0.52108754  0.55715939    -0.00100
C1587       C  0.90103619  0.52220060  0.59419896    -0.08600
C1588       C  0.87947489  0.51178984  0.61492658    -0.06000
C1589       C  0.85570734  0.50167813  0.60012151    -0.00100
C1590       C  0.85365945  0.50360168  0.56278159    -0.08500
C1591       C  0.82930748  0.49635326  0.54416449     0.61800
H1592       H  0.87424576  0.51302179  0.51351051     0.12500
H1593       H  0.88138248  0.51145475  0.64326178     0.12500
C1594       C  0.92573524  0.53419843  0.61317336     0.62100
F1595       F  0.83141039  0.49524713  0.50800743    -0.23100
F1596       F  0.82242685  0.51389142  0.55029054    -0.20400
F1597       F  0.81085602  0.47348794  0.55569672    -0.20100
F1598       F  0.94570174  0.54742034  0.59074151    -0.20200
F1599       F  0.92880689  0.51629147  0.63071403    -0.20500
F1600       F  0.92588286  0.55044490  0.63755403    -0.23200
C1601       C  0.86723531  0.51650685  0.71189760    -0.06000
C1602       C  0.84882073  0.49177558  0.71662058    -0.00100
C1603       C  0.84965826  0.47823084  0.74629282    -0.08600
C1604       C  0.87002273  0.48936419  0.76895534    -0.06000
C1605       C  0.88950150  0.51345551  0.76280440    -0.00100
C1606       C  0.88772702  0.52773838  0.73469240    -0.08500
C1607       C  0.90743516  0.55437240  0.72838229     0.61800
H1608       H  0.86570380  0.52676266  0.68960052     0.12500
H1609       H  0.87151163  0.47882342  0.79091128     0.12500
C1610       C  0.82972834  0.45181962  0.75309933     0.62100
F1611       F  0.90323780  0.56405858  0.69766973    -0.23100
F1612       F  0.93057733  0.55637366  0.72558633    -0.20400
F1613       F  0.90730655  0.56822990  0.75627189    -0.20100
F1614       F  0.82947253  0.43763947  0.72559463    -0.20200
F1615       F  0.80688153  0.45048115  0.75576870    -0.20500
F1616       F  0.83378001  0.44212493  0.78393966    -0.23200
C1617       C  0.89066959  0.35256377  0.57630114    -0.06000
C1618       C  0.88737255  0.36538463  0.54796424    -0.00100
C1619       C  0.86396254  0.36387031  0.54298623    -0.08600
C1620       C  0.84543029  0.35158433  0.56871220    -0.06000
C1621       C  0.84957821  0.34078548  0.59871613    -0.00100
C1622       C  0.87208623  0.34038759  0.60211724    -0.08500
C1623       C  0.87665137  0.32785395  0.63346053     0.61800
H1624       H  0.90849757  0.35355669  0.57936431     0.12500
H1625       H  0.82788376  0.35130763  0.56638859     0.12500
C1626       C  0.86841571  0.38412677  0.01029168     0.62100
F1627       F  0.89894317  0.32797942  0.63058684    -0.23100
F1628       F  0.85787851  0.30363569  0.63593476    -0.20400
F1629       F  0.87721663  0.33994902  0.66381642    -0.20100
F1630       F  0.87570133  0.37785704  0.97955543    -0.20200
F1631       F  0.88244746  0.40924943  0.01467869    -0.20500
F1632       F  0.84393600  0.37833843  0.00655310    -0.23200
C1633       C  0.85071355  0.36935814  0.72813447    -0.06000
C1634       C  0.84390659  0.34475303  0.72188852    -0.00100
C1635       C  0.85611544  0.33408808  0.74107514    -0.08600
C1636       C  0.87677693  0.34945085  0.76189486    -0.06000
C1637       C  0.88484115  0.37461313  0.76556454    -0.00100
C1638       C  0.87045548  0.38438690  0.75021671    -0.08500
C1639       C  0.87552498  0.41046985  0.75659030     0.61800
H1640       H  0.84088762  0.37719435  0.71427801     0.12500
H1641       H  0.88702369  0.34188453  0.77530152     0.12500
C1642       C  0.84766223  0.30684267  0.74019692     0.62100
F1643       F  0.85716223  0.41451798  0.74269151    -0.23100
F1644       F  0.89768328  0.42743509  0.74086495    -0.20400
F1645       F  0.87638830  0.41446716  0.79245443    -0.20100
F1646       F  0.84611364  0.29934992  0.70593205    -0.20200
F1647       F  0.82478389  0.29381518  0.75648204    -0.20500
F1648       F  0.86381322  0.30114605  0.75786770    -0.23200
C1649       C  0.47440230  0.10357950  0.71465580    -0.06000
C1650       C  0.48412510  0.10857153  0.74867422    -0.00100
C1651       C  0.49961278  0.13321603  0.75873476    -0.08600
C1652       C  0.50785759  0.15186146  0.73269317    -0.06000
C1653       C  0.50062638  0.14647434  0.69747383    -0.00100
C1654       C  0.48223365  0.12226445  0.68871745    -0.08500
C1655       C  0.47121232  0.11561556  0.65228143     0.61800
H1656       H  0.46229859  0.08459376  0.70756364     0.12500
H1657       H  0.52113072  0.17061593  0.73951269     0.12500
C1658       C  0.50896678  0.14011918  0.79602202     0.62100
F1659       F  0.44876801  0.09383197  0.65309891    -0.23100
F1660       F  0.48721293  0.11272258  0.63029267    -0.20400
F1661       F  0.46683110  0.13378764  0.63895837    -0.20100
F1662       F  0.53210127  0.14212325  0.79890987    -0.20200
F1663       F  0.49300354  0.12277248  0.82033972    -0.20500
F1664       F  0.51085663  0.16248659  0.80416058    -0.23200
C1665       C  0.48732573  0.12361403  0.53708296    -0.06000
C1666       C  0.50093275  0.11120242  0.53649117    -0.00100
C1667       C  0.52406460  0.12147157  0.55397306    -0.08600
C1668       C  0.53122297  0.14218409  0.57474721    -0.06000
C1669       C  0.51672432  0.15361148  0.57808593    -0.00100
C1670       C  0.49506657  0.14513810  0.55686047    -0.08500
C1671       C  0.48051885  0.15874268  0.55332113     0.61800
H1672       H  0.47050390  0.11622956  0.52173533     0.12500
H1673       H  0.54820112  0.14924249  0.58950359     0.12500
C1674       C  0.54175747  0.11134062  0.54988899     0.62100
F1675       F  0.49498199  0.18102860  0.53605523    -0.23100
F1676       F  0.47344782  0.16265753  0.58590959    -0.20400
F1677       F  0.45922828  0.14579198  0.53364616    -0.20100
F1678       F  0.54590078  0.10981968  0.51445133    -0.20200
F1679       F  0.53194921  0.08830892  0.56581284    -0.20500
F1680       F  0.56452035  0.12628029  0.56522728    -0.23200
C1681       C  0.63444915  0.14123774  0.71224946    -0.06000
C1682       C  0.65996433  0.15155863  0.70646132    -0.00100
C1683       C  0.67293217  0.14136193  0.72515259    -0.08600
C1684       C  0.65908750  0.11973351  0.74602810    -0.06000
C1685       C  0.63331607  0.10891874  0.75012231    -0.00100
C1686       C  0.62077143  0.12006383  0.73319782    -0.08500
C1687       C  0.59274202  0.10890281  0.73482416     0.61800
H1688       H  0.62489007  0.14947207  0.69886055     0.12500
H1689       H  0.66831959  0.11123626  0.75986237     0.12500
C1690       C  0.70098374  0.15300092  0.72411704     0.62100
F1691       F  0.58449299  0.12172826  0.71375871    -0.23100
F1692       F  0.58521320  0.10922020  0.76894271    -0.20400
F1693       F  0.58156616  0.08500109  0.72308528    -0.20100
F1694       F  0.71155146  0.17498290  0.74174274    -0.20200
F1695       F  0.70961131  0.15726782  0.68985651    -0.20500
F1696       F  0.70891521  0.13809307  0.74038274    -0.24400
C1697       C  0.65380624  0.11107145  0.56295890    -0.06000
C1698       C  0.64658426  0.11641545  0.53036987    -0.00100
C1699       C  0.65314177  0.14122057  0.52226793    -0.08600
C1700       C  0.66313287  0.15885164  0.54908689    -0.06000
C1701       C  0.66717069  0.15254299  0.58321686    -0.00100
C1702       C  0.66460121  0.12892952  0.58917817    -0.08500
C1703       C  0.67430406  0.12296201  0.62231121     0.61800
H1704       H  0.64999189  0.09244697  0.56845108     0.12500
H1705       H  0.66682985  0.17748530  0.54397818     0.12500
C1706       C  0.65020852  0.14926703  0.48542018     0.62100
F1707       F  0.67437492  0.10091597  0.62002405    -0.23100
F1708       F  0.65971545  0.12119675  0.65069056    -0.20400
F1709       F  0.69843016  0.14132709  0.62751407    -0.20100
F1710       F  0.62551264  0.14124936  0.47865448    -0.20200
F1711       F  0.65552504  0.13940989  0.95694331    -0.20500
F1712       F  0.66315287  0.17463967  0.48132036    -0.23200
C1713       C  0.13674419  0.47998216  0.98433477    -0.06000
C1714       C  0.13279092  0.49783202  0.00049429    -0.00100
C1715       C  0.14821147  0.52310647  0.99067738    -0.08600
C1716       C  0.16599703  0.52918189  0.96394805    -0.06000
C1717       C  0.16982320  0.51143147  0.94785658    -0.00100
C1718       C  0.15550102  0.48640607  0.95869285    -0.08500
C1719       C  0.16012726  0.46660678  0.94390297     0.61800
H1720       H  0.12517182  0.46088122  0.99234539     0.12500
H1721       H  0.17722754  0.54814850  0.95510943     0.12500
C1722       C  0.14581524  0.54382044  0.00728212     0.62100
F1723       F  0.14127941  0.44322798  0.95292768    -0.23100
F1724       F  0.18200338  0.46922774  0.95739183    -0.20400
F1725       F  0.16178332  0.46839110  0.90753921    -0.20100
F1726       F  0.14513680  0.53434280  0.54925084    -0.20200
F1727       F  0.12212434  0.54012405  0.00243188    -0.20500
F1728       F  0.16221678  0.56660440  0.99256807    -0.23200
C1729       C  0.14061299  0.48961516  0.84801130    -0.06000
C1730       C  0.16406853  0.50139375  0.83139036    -0.00100
C1731       C  0.16510487  0.50091998  0.79392390    -0.08600
C1732       C  0.14273610  0.49015057  0.77486256    -0.06000
C1733       C  0.11957707  0.47985615  0.79159204    -0.00100
C1734       C  0.11834094  0.47918327  0.82884759    -0.08500
C1735       C  0.09377016  0.46937782  0.84824232     0.61800
H1736       H  0.13979689  0.48971806  0.87646750     0.12500
H1737       H  0.14311108  0.49028925  0.74631982     0.12500
C1738       C  0.18927562  0.51192379  0.77342843     0.62100
F1739       F  0.09679589  0.47119123  0.88446049    -0.23100
F1740       F  0.07847555  0.44485627  0.84065480    -0.20400
F1741       F  0.08238404  0.48271292  0.83786357    -0.20100
F1742       F  0.19934622  0.49661500  0.77692884    -0.20200
F1743       F  0.20571619  0.53499331  0.78552549    -0.20500
F1744       F  0.18582716  0.51449038  0.73781939    -0.23200
C1745       C  0.26242149  0.53490557  0.92076770    -0.06000
C1746       C  0.25139271  0.53197168  0.88730085    -0.00100
C1747       C  0.26625103  0.53332098  0.85787449    -0.08600
C1748       C  0.28757842  0.53108055  0.86372825    -0.06000
C1749       C  0.29670120  0.53025563  0.89772079    -0.00100
C1750       C  0.28499151  0.53505489  0.92653106    -0.08500
C1751       C  0.29500998  0.54025700  0.96389984     0.61800
H1752       H  0.25362659  0.53797444  0.94309596     0.12500
H1753       H  0.29809972  0.53166535  0.84080599     0.12500
C1754       C  0.26185465  0.53886749  0.82014891     0.62100
F1755       F  0.28944528  0.55592622  0.48176715    -0.23100
F1756       F  0.32050963  0.55255881  0.96437753    -0.20400
F1757       F  0.28571478  0.51839395  0.98289989    -0.20100
F1758       F  0.24889138  0.55149905  0.81857624    -0.20200
F1759       F  0.24930941  0.51717964  0.80198406    -0.20500
F1760       F  0.28425660  0.55369157  0.80313178    -0.23200
C1761       C  0.38858334  0.86186959  0.77321928    -0.06000
C1762       C  0.38503424  0.88199548  0.77912162    -0.00100
C1763       C  0.36880213  0.88045063  0.80644432    -0.08600
C1764       C  0.35691211  0.85859482  0.82723294    -0.06000
C1765       C  0.36196021  0.83921502  0.82266120    -0.00100
C1766       C  0.37779284  0.84072162  0.79492237    -0.08500
C1767       C  0.38378336  0.82038566  0.78856863     0.61800
H1768       H  0.40089874  0.86330636  0.75202401     0.12500
H1769       H  0.34441938  0.85689352  0.84830961     0.12500
C1770       C  0.36527453  0.90212702  0.81499866     0.62100
F1771       F  0.39908361  0.82537277  0.75949017    -0.23100
F1772       F  0.36211663  0.79867432  0.78272922    -0.20400
F1773       F  0.39579395  0.81765560  0.81756521    -0.20100
F1774       F  0.35399119  0.90712389  0.78703119    -0.20200
F1775       F  0.38803314  0.92263209  0.82119196    -0.20500
F1776       F  0.35062992  0.89750254  0.84474362    -0.23200
C1777       C  0.37937601  0.85666835  0.99689330    -0.06000
C1778       C  0.38911237  0.88078388  0.98324113    -0.00100
C1779       C  0.38577363  0.88440538  0.94704533    -0.08600
C1780       C  0.37228861  0.86367216  0.92610232    -0.06000
C1781       C  0.36258053  0.83960554  0.93958990    -0.00100
C1782       C  0.36631398  0.83588093  0.97561024    -0.08500
C1783       C  0.35767455  0.81033596  0.99129942     0.61800
H1784       H  0.37491458  0.85120861  0.52081372     0.12500
H1785       H  0.36992386  0.86613027  0.89838291     0.12500
C1786       C  0.39767168  0.90989894  0.92984567     0.62100
F1787       F  0.36408380  0.80935339  0.52039025    -0.23100
F1788       F  0.36594365  0.79775096  0.97086033    -0.20400
F1789       F  0.33211564  0.79732306  0.99301238    -0.20100
F1790       F  0.42294373  0.92208025  0.93575994    -0.20200
F1791       F  0.38745954  0.92321349  0.94366026    -0.20500
F1792       F  0.39411017  0.90888102  0.89372984    -0.23200
C1793       C  0.17467847  0.65328615  0.98949197    -0.06000
C1794       C  0.16967001  0.66352451  0.95970349    -0.00100
C1795       C  0.14766120  0.66492839  0.95847155    -0.08600
C1796       C  0.12707378  0.64704524  0.47982644    -0.06000
C1797       C  0.13313980  0.63944516  0.01253287    -0.00100
C1798       C  0.15666158  0.64073910  0.01591640    -0.08500
C1799       C  0.16274923  0.62820811  0.04597234     0.61800
H1800       H  0.19246567  0.65411080  0.99085496     0.12500
H1801       H  0.10889258  0.64499520  0.47553967     0.12500
C1802       C  0.14302697  0.67875889  0.92893561     0.62100
F1803       F  0.18788584  0.63612775  0.04746169    -0.23100
F1804       F  0.15039771  0.60302926  0.04132304    -0.20400
F1805       F  0.15590651  0.63349620  0.07787061    -0.20100
F1806       F  0.14068138  0.66710891  0.89751587    -0.20200
F1807       F  0.16262605  0.70258249  0.92664378    -0.20500
F1808       F  0.11778091  0.66936636  0.42395107    -0.23200
C1809       C  0.15095034  0.62740997  0.83644092    -0.06000
C1810       C  0.16284560  0.65323528  0.83761994    -0.00100
C1811       C  0.15378640  0.66581252  0.81540932    -0.08600
C1812       C  0.13400401  0.65184493  0.79220998    -0.06000
C1813       C  0.12243881  0.62609987  0.79178358    -0.00100
C1814       C  0.13034949  0.61361916  0.81531920    -0.08500
C1815       C  0.11610526  0.58570883  0.82018653     0.61800
H1816       H  0.15746671  0.61765561  0.85266676     0.12500
H1817       H  0.12736641  0.66095294  0.77428293     0.12500
C1818       C  0.16395289  0.69348482  0.81556666     0.62100
F1819       F  0.12445839  0.57789407  0.84889990    -0.23100
F1820       F  0.11867529  0.57454831  0.79065590    -0.20400
F1821       F  0.09127081  0.57789317  0.82590249    -0.20100
F1822       F  0.18459039  0.70502511  0.79387593    -0.20200
F1823       F  0.17006143  0.70252249  0.84919969    -0.20500
F1824       F  0.14656192  0.69952818  0.80319554    -0.23200
C1825       C  0.19987803  0.61396307  0.86314338    -0.06000
C1826       C  0.20509877  0.62489834  0.89633451    -0.00100
C1827       C  0.21168580  0.61391020  0.92434234    -0.08600
C1828       C  0.21245372  0.59213267  0.91806078    -0.06000
C1829       C  0.20647156  0.58082672  0.88515223    -0.00100
C1830       C  0.20004297  0.59185881  0.85712599    -0.08500
C1831       C  0.19454910  0.58098867  0.82067304     0.61800
H1832       H  0.19630144  0.62335842  0.84146095     0.12500
H1833       H  0.21723646  0.58333846  0.93925592     0.12500
C1834       C  0.21608447  0.62378614  0.96138851     0.62100
F1835       F  0.18900097  0.59476576  0.79709909    -0.23100
F1836       F  0.17451114  0.55740661  0.82210165    -0.20400
F1837       F  0.21506806  0.58033266  0.80807048    -0.20100
F1838       F  0.23085369  0.64909257  0.96113768    -0.20200
F1839       F  0.22770797  0.61402340  0.98204972    -0.20500
F1840       F  0.19348390  0.61728046  0.97666383    -0.23200
C1841       C  0.26519338  0.71848448  0.86339121    -0.06000
C1842       C  0.24689855  0.71817701  0.88533586    -0.00100
C1843       C  0.25153960  0.74124094  0.89855239    -0.08600
C1844       C  0.27609657  0.76089177  0.89901128    -0.06000
C1845       C  0.29543400  0.76036418  0.88040408    -0.00100
C1846       C  0.28850605  0.73962045  0.85829276    -0.08500
C1847       C  0.30340478  0.73824627  0.82758894     0.61800
H1848       H  0.26082311  0.70220644  0.84853026     0.12500
H1849       H  0.27933692  0.77771169  0.91110417     0.12500
C1850       C  0.23149798  0.74761353  0.90711330     0.62100
F1851       F  0.28880536  0.73165323  0.79770280    -0.23100
F1852       F  0.30995418  0.72044719  0.83477931    -0.20400
F1853       F  0.32437956  0.76000770  0.81950704    -0.20100
F1854       F  0.22973567  0.74918636  0.94318095    -0.20200
F1855       F  0.20873567  0.73087016  0.89378374    -0.20500
F1856       F  0.23753908  0.77021243  0.89181911    -0.23200
C1857       C  0.43280860  0.60355391  0.92528633    -0.06000
C1858       C  0.43785484  0.61947939  0.89607176    -0.00100
C1859       C  0.41941705  0.61309608  0.86979682    -0.08600
C1860       C  0.39660403  0.59099342  0.87384799    -0.06000
C1861       C  0.39120419  0.57527455  0.90349676    -0.00100
C1862       C  0.40950659  0.58205254  0.93023064    -0.08500
C1863       C  0.40385667  0.56828884  0.96536133     0.61800
H1864       H  0.44696980  0.60881548  0.94521389     0.12500
H1865       H  0.38243819  0.58602628  0.85394410     0.12500
C1866       C  0.42308066  0.62976277  0.83804459     0.62100
F1867       F  0.42347815  0.57925622  0.98857336    -0.23100
F1868       F  0.39876539  0.54440034  0.96087766    -0.20400
F1869       F  0.38372414  0.56830348  0.98061133    -0.20100
F1870       F  0.44689880  0.63992179  0.82474005    -0.20200
F1871       F  0.41860493  0.64840973  0.84780851    -0.20500
F1872       F  0.40697083  0.61692980  0.81115528    -0.23200
C1873       C  0.52903635  0.85153490  0.83007686    -0.06000
C1874       C  0.50359655  0.83428990  0.83036659    -0.00100
C1875       C  0.48788986  0.83637719  0.80529751    -0.08600
C1876       C  0.49793600  0.85667852  0.78190092    -0.06000
C1877       C  0.52303209  0.87498510  0.78298920    -0.00100
C1878       C  0.53914692  0.87215180  0.80684085    -0.08500
C1879       C  0.56635632  0.89135492  0.80933998     0.61800
H1880       H  0.54068180  0.84932203  0.84949620     0.12500
H1881       H  0.48585942  0.85892144  0.76331755     0.12500
C1882       C  0.46045784  0.81782181  0.80411441     0.62100
F1883       F  0.57845341  0.88501905  0.83470654    -0.23100
F1884       F  0.56862650  0.91374653  0.81814461    -0.20400
F1885       F  0.57802338  0.89378642  0.77735846    -0.20100
F1886       F  0.44879401  0.82071679  0.83304944    -0.20200
F1887       F  0.45692742  0.79416476  0.80440254    -0.20500
F1888       F  0.44948466  0.82086860  0.77400136    -0.23200
C1889       C  0.52613649  0.86688955  0.92591443    -0.06000
C1890       C  0.51717486  0.84401629  0.94347305    -0.00100
C1891       C  0.52040282  0.84347008  0.98060703    -0.08600
C1892       C  0.52958231  0.86536634  0.50013742    -0.06000
C1893       C  0.53962519  0.88860345  0.98102810    -0.00100
C1894       C  0.53710357  0.88919004  0.94397906    -0.08500
C1895       C  0.54554376  0.91313942  0.92339143     0.61800
H1896       H  0.52376698  0.86721579  0.89768787     0.12500
H1897       H  0.53028391  0.86473146  0.52864520     0.12500
C1898       C  0.51282884  0.81954515  0.50120299     0.62100
F1899       F  0.54726987  0.91018700  0.88763133    -0.23100
F1900       F  0.56868156  0.93081876  0.93471427    -0.20400
F1901       F  0.52876641  0.92134258  0.92815330    -0.20100
F1902       F  0.52835607  0.81185647  0.00060810    -0.20200
F1903       F  0.48965066  0.80148493  0.49079157    -0.20500
F1904       F  0.51169741  0.82226292  0.53717335    -0.23200
C1905       C  0.41677778  0.77570624  0.88082445    -0.06000
C1906       C  0.43492869  0.79349654  0.90248862    -0.00100
C1907       C  0.42928685  0.80974305  0.92062704    -0.08600
C1908       C  0.40662840  0.80896994  0.91388946    -0.06000
C1909       C  0.38868296  0.79176561  0.89121948    -0.00100
C1910       C  0.39377613  0.77443703  0.87465150    -0.08500
C1911       C  0.37627273  0.75562363  0.84868911     0.61800
H1912       H  0.42128155  0.76335527  0.86722765     0.12500
H1913       H  0.40285235  0.82202608  0.92695060     0.12500
C1914       C  0.44629729  0.82784349  0.94763688     0.62100
F1915       F  0.38757813  0.74492635  0.83021274    -0.23100
F1916       F  0.36842275  0.76682785  0.82426085    -0.20400
F1917       F  0.35621401  0.73690021  0.86630290    -0.20100
F1918       F  0.46042302  0.85075661  0.93179126    -0.20200
F1919       F  0.46163203  0.82020025  0.96282762    -0.20500
F1920       F  0.43256195  0.82994811  0.97464276    -0.23200
C1921       C  0.47925346  0.74005691  0.92255104    -0.06000
C1922       C  0.49426707  0.75913779  0.89866131    -0.00100
C1923       C  0.51257406  0.75650069  0.87977906    -0.08600
C1924       C  0.51010668  0.73291460  0.87778232    -0.06000
C1925       C  0.49261931  0.71267260  0.89822987    -0.00100
C1926       C  0.47896457  0.71744527  0.92424094    -0.08500
C1927       C  0.46341334  0.70015397  0.95439636     0.61800
H1928       H  0.46785571  0.74300985  0.94118208     0.12500
H1929       H  0.52346336  0.73103862  0.86189627     0.12500
C1930       C  0.53617033  0.77767739  0.86397489     0.62100
F1931       F  0.46916523  0.71315126  0.98537262    -0.23100
F1932       F  0.46705521  0.68042396  0.96086378    -0.20400
F1933       F  0.43860022  0.69134871  0.94732058    -0.20100
F1934       F  0.54107080  0.80042572  0.87559147    -0.20200
F1935       F  0.53466844  0.77731705  0.82759112    -0.20500
F1936       F  0.55622031  0.77495354  0.87372142    -0.23200
C1937       C  0.35846136  0.47150960  0.81414800    -0.06000
C1938       C  0.37952185  0.48874116  0.79500554    -0.00100
C1939       C  0.38781125  0.51432798  0.79881253    -0.08600
C1940       C  0.37610591  0.52154728  0.82371587    -0.06000
C1941       C  0.35560962  0.50443440  0.84318820    -0.00100
C1942       C  0.34568459  0.47894145  0.83728628    -0.08500
C1943       C  0.32126473  0.45975097  0.85380056     0.61800
H1944       H  0.35177607  0.45211988  0.81027984     0.12500
H1945       H  0.38297735  0.54088361  0.82848706     0.12500
C1946       C  0.40936214  0.53430404  0.77775151     0.62100
F1947       F  0.30214167  0.46201360  0.83878616    -0.23100
F1948       F  0.32104329  0.46277773  0.88969351    -0.20400
F1949       F  0.31680416  0.43606947  0.84830373    -0.20100
F1950       F  0.40415483  0.53131407  0.74212213    -0.20200
F1951       F  0.43059500  0.53306125  0.78481825    -0.20500
F1952       F  0.41387643  0.55764874  0.78597460    -0.23200
C1953       C  0.50861734  0.35536383  0.76730962    -0.06000
C1954       C  0.49297412  0.36403125  0.75433608    -0.00100
C1955       C  0.48608619  0.36062639  0.71828878    -0.08600
C1956       C  0.49512150  0.34867472  0.69666671    -0.06000
C1957       C  0.51066028  0.33998258  0.70963101    -0.00100
C1958       C  0.51758224  0.34329996  0.74567345    -0.08500
C1959       C  0.53459915  0.33461643  0.76142461     0.61800
H1960       H  0.51388367  0.35821615  0.79479930     0.12500
H1961       H  0.49036264  0.34628537  0.66898799     0.12500
C1962       C  0.46999928  0.37026579  0.70219322     0.62100
F1963       F  0.54300357  0.34430968  0.79440558    -0.23100
F1964       F  0.55514513  0.34175578  0.74011526    -0.20400
F1965       F  0.52186843  0.30927370  0.76509844    -0.20100
F1966       F  0.48007279  0.39508893  0.70875164    -0.20200
F1967       F  0.44643596  0.35743305  0.71660051    -0.20500
F1968       F  0.46800150  0.36747649  0.66600328    -0.23200
C1969       C  0.35931237  0.48266252  0.94698176    -0.06000
C1970       C  0.34867605  0.49618318  0.96061860    -0.00100
C1971       C  0.34675018  0.49712183  0.99787399    -0.08600
C1972       C  0.36153429  0.48687583  0.51990182    -0.06000
C1973       C  0.36938494  0.47436914  0.00565919    -0.00100
C1974       C  0.36924002  0.47126878  0.96884516    -0.08500
C1975       C  0.38099816  0.45742655  0.95257504     0.61800
H1976       H  0.36098746  0.48206435  0.91872626     0.12500
H1977       H  0.36046216  0.48702506  0.54838088     0.12500
C1978       C  0.33396558  0.50951146  0.01528204     0.62100
F1979       F  0.37868622  0.45642970  0.91623171    -0.23100
F1980       F  0.37945978  0.43959068  0.46128033    -0.20400
F1981       F  0.40596573  0.46892435  0.96053598    -0.20100
F1982       F  0.31147045  0.49401809  0.51051108    -0.20200
F1983       F  0.34178286  0.53245007  0.00039453    -0.20500
F1984       F  0.33948232  0.50905136  0.55316143    -0.23200
C1985       C  0.51573255  0.36310828  0.53862765    -0.06000
C1986       C  0.49087353  0.35709728  0.54263317    -0.00100
C1987       C  0.47594595  0.33920902  0.56838888    -0.08600
C1988       C  0.48742600  0.33053148  0.59248083    -0.06000
C1989       C  0.51288633  0.33854542  0.59038840    -0.00100
C1990       C  0.52689038  0.35375691  0.56170176    -0.08500
C1991       C  0.55349240  0.36022492  0.55560350     0.61800
H1992       H  0.52669963  0.37595621  0.51777050     0.12500
H1993       H  0.47676561  0.31790918  0.61371911     0.12500
C1994       C  0.44835090  0.32980411  0.57086849     0.62100
F1995       F  0.54168251  0.34790268  0.01022801    -0.23100
F1996       F  0.55473910  0.33881343  0.55348891    -0.20400
F1997       F  0.56780540  0.37417459  0.58310158    -0.20100
F1998       F  0.43737313  0.31955990  0.53914263    -0.20200
F1999       F  0.44409334  0.34897968  0.57831861    -0.20500
F2000       F  0.43722857  0.31186975  0.59702480    -0.23200
C2001       C  0.53682281  0.64782067  0.78933618    -0.06000
C2002       C  0.52025483  0.62280495  0.78402990    -0.00100
C2003       C  0.49663557  0.61147919  0.80061746    -0.08600
C2004       C  0.49057484  0.62559945  0.82212512    -0.06000
C2005       C  0.50739581  0.65016382  0.82935428    -0.00100
C2006       C  0.53071721  0.66203384  0.81144170    -0.08500
C2007       C  0.54894807  0.68935331  0.81440206     0.61800
H2008       H  0.55451705  0.65614823  0.77573006     0.12500
H2009       H  0.47253907  0.61709737  0.83472054     0.12500
C2010       C  0.47810805  0.58419193  0.79758949     0.62100
F2011       F  0.57180126  0.69558346  0.79988904    -0.23100
F2012       F  0.55270261  0.69622294  0.84923414    -0.20400
F2013       F  0.53986628  0.70259906  0.79626671    -0.20100
F2014       F  0.48936563  0.57039264  0.80589679    -0.20200
F2015       F  0.46894304  0.57928225  0.76365373    -0.20500
F2016       F  0.45824721  0.57673261  0.82048440    -0.23200
C2017       C  0.64362837  0.51975834  0.72671672    -0.06000
C2018       C  0.63971500  0.50924800  0.76057954    -0.00100
C2019       C  0.64980614  0.49395375  0.76983344    -0.08600
C2020       C  0.66178231  0.48802711  0.74352803    -0.06000
C2021       C  0.66309539  0.49624666  0.70852022    -0.00100
C2022       C  0.65510719  0.51345041  0.70029556    -0.08500
C2023       C  0.65871605  0.52534619  0.66410309     0.61800
H2024       H  0.63611982  0.53176853  0.72042348     0.12500
H2025       H  0.66889617  0.47568213  0.74964691     0.12500
C2026       C  0.64773477  0.48372533  0.80702268     0.62100
F2027       F  0.64241046  0.50848946  0.64063175    -0.23100
F2028       F  0.68276199  0.53389145  0.65303329    -0.20400
F2029       F  0.65468332  0.54525957  0.66428317    -0.20100
F2030       F  0.62351626  0.46589580  0.81404796    -0.20200
F2031       F  0.65504151  0.50243635  0.83097349    -0.20500
F2032       F  0.66265146  0.47317644  0.81165770    -0.23200
C2033       C  0.53861722  0.63718101  0.97928053    -0.06000
C2034       C  0.52201516  0.62564467  0.00758712    -0.00100
C2035       C  0.50347134  0.62720444  0.50779597    -0.08600
C2036       C  0.49572734  0.64080227  0.98279064    -0.06000
C2037       C  0.51119327  0.65026262  0.95322716    -0.00100
C2038       C  0.53356870  0.64958063  0.95197663    -0.08500
C2039       C  0.55180342  0.66166443  0.92179642     0.61800
H2040       H  0.55506702  0.63538737  0.97768245     0.12500
H2041       H  0.47900753  0.64219722  0.98343457     0.12500
C2042       C  0.48755807  0.61888020  0.54094021     0.62100
F2043       F  0.57302988  0.65992559  0.92648707    -0.23100
F2044       F  0.55870368  0.68634006  0.91941693    -0.20400
F2045       F  0.54094525  0.65041900  0.89060927    -0.20100
F2046       F  0.50221065  0.62319656  0.57045806    -0.20200
F2047       F  0.47062973  0.59403440  0.53916825    -0.20500
F2048       F  0.47455509  0.63142291  0.54485128    -0.23200
C2049       C  0.65011350  0.50870576  0.54780982    -0.06000
C2050       C  0.62465195  0.49239383  0.54464012    -0.00100
C2051       C  0.61410900  0.46868005  0.56102298    -0.08600
C2052       C  0.62911163  0.46330755  0.58300720    -0.06000
C2053       C  0.65414535  0.48039591  0.58863578    -0.00100
C2054       C  0.66533618  0.50310677  0.56921160    -0.08500
C2055       C  0.69306154  0.52116409  0.56907693     0.61800
H2056       H  0.65803868  0.52609416  0.53339032     0.12500
H2057       H  0.62108346  0.44578350  0.59712737     0.12500
C2058       C  0.58726819  0.44888090  0.55538311     0.62100
F2059       F  0.69832956  0.54403375  0.55569001    -0.23100
F2060       F  0.70480184  0.51221291  0.54797729    -0.20400
F2061       F  0.70290505  0.52473897  0.60248312    -0.20100
F2062       F  0.65352037  0.50389899  0.97364755    -0.20200
F2063       F  0.57145050  0.45513348  0.57212872    -0.20500
F2064       F  0.58249238  0.42619744  0.56882796    -0.23200
loop_ 
_geom_bond_atom_site_label_1 
_geom_bond_atom_site_label_2 
_geom_bond_distance 
_geom_bond_site_symmetry_2 
_ccdc_geom_bond_type 
In1           O3   2.245       .  S
In1           O4   2.246       .  S
In1           O8   2.223       .  S
In1          O10   2.250       .  S
In1          O13   2.213       .  S
In1        O1044   2.198       .  S
In1        O1038   2.264       .  S
In1        O1041   2.266       .  S
C2            O8   1.259       .  A
C2           O10   1.263       .  A
C2           C33   1.459       .  S
O3           C11   1.256       .  A
O4           C11   1.257       .  A
C5           O12   1.257       .  A
C5            O6   1.265       .  A
C5         C1018   1.465       .  S
O6        In1033   2.250   1_554  S
C7            O9   1.264       .  A
C7         O1045   1.257   1_554  A
C7           C20   1.462       .  S
O9        In1033   2.278   1_554  S
C11        C1095   1.454       .  S
O12       In1033   2.211   1_554  S
O13        C1039   1.258       .  A
In14         O16   2.249       .  S
In14         O17   2.245       .  S
In14         O19   2.257       .  S
In14         O21   2.266       .  S
In14         O22   2.282       .  S
In14         O23   2.211       .  S
In14         O26   2.213       .  S
In14       O1057   2.235       .  S
C15          O21   1.265       .  A
C15          O23   1.259       .  A
C15          C46   1.460       .  S
O16          C24   1.257       .  A
O17          C24   1.258       .  A
C18          O19   1.263       .  A
C18        O1057   1.255       .  A
C18        C2034   1.487       .  S
C20          O22   1.262       .  A
C20          O26   1.256       .  A
C24          C76   1.458       .  S
O25       In1046   2.233       .  S
O25        C1050   1.256       .  A
In27         O29   2.264       .  S
In27         O30   2.248       .  S
In27         O38   2.211       .  S
In27         O32   2.277       .  S
In27         O34   2.203       .  S
In27         O35   2.254       .  S
In27         O36   2.286       .  S
In27         O39   2.230       .  S
C28          O34   1.255       .  A
C28          O36   1.264       .  A
C28          C41   1.462       .  S
O29          C37   1.260       .  A
O30          C37   1.259       .  A
C31          O38   1.253       .  A
C31          O32   1.264       .  A
C31         C986   1.489       .  S
C33          O35   1.260       .  A
C33          O39   1.259       .  A
C37          C89   1.466       .  S
In40         O42   2.254       .  S
In40         O43   2.242       .  S
In40         O51   2.215       .  S
In40         O45   2.271       .  S
In40         O47   2.279       .  S
In40         O48   2.209       .  S
In40         O49   2.204       .  S
In40         O52   2.264       .  S
C41          O47   1.263       .  A
C41          O49   1.257       .  A
O42          C50   1.257       .  A
O43          C50   1.257       .  A
C44          O51   1.254       .  A
C44          O45   1.264       .  A
C44         C970   1.480       .  S
C46          O48   1.259       .  A
C46          O52   1.264       .  A
C50         C102   1.457       .  S
In53         O56   2.239       .  S
In53         O64   2.203       .  S
In53         O61   2.276       .  S
In53         O62   2.227       .  S
In53         O65   2.230       .  S
In53       O1087   2.241       .  S
In53       O1090   2.277       .  S
In53       O1092   2.285       .  S
C54          O60   1.265       .  A
C54        O1094   1.257   1_554  A
C54          C67   1.462       .  S
O55       In1085   2.258   1_554  S
O55          C63   1.260   1_554  A
O56        C1095   1.258       .  A
C57          O58   1.264       .  A
C57        O1096   1.256       .  A
C57         C954   1.472       .  S
O58       In1085   2.261   1_554  S
C59          O61   1.262       .  A
C59          O65   1.255       .  A
C59          C80   1.466       .  S
O60       In1085   2.284   1_554  S
O62        C1086   1.258       .  A
C63        O1088   1.260       .  A
C63        C1043   1.461       .  S
O64        C1089   1.255       .  A
In66         O68   2.244       .  S
In66         O69   2.253       .  S
In66         O77   2.227       .  S
In66         O71   2.268       .  S
In66         O73   2.198       .  S
In66         O74   2.232       .  S
In66         O75   2.293       .  S
In66         O78   2.275       .  S
C67          O73   1.254       .  A
C67          O75   1.265       .  A
O68          C76   1.257       .  A
O69          C76   1.258       .  A
C70          O77   1.257       .  A
C70          O71   1.262       .  A
C70        C1973   1.478       .  S
C72          O74   1.259       .  A
C72          O78   1.263       .  A
C72          C93   1.469       .  S
In79         O81   2.248       .  S
In79         O82   2.265       .  S
In79         O90   2.307       .  S
In79         O84   2.205       .  S
In79         O86   2.234       .  S
In79         O87   2.214       .  S
In79         O88   2.275       .  S
In79         O91   2.284       .  S
C80          O86   1.257       .  A
C80          O88   1.260       .  A
O81          C89   1.259       .  A
O82          C89   1.261       .  A
C83          O90   1.266       .  A
C83          O84   1.255       .  A
C83         C922   1.489       .  S
C85          O87   1.256       .  A
C85          O91   1.265       .  A
C85          C98   1.465       .  S
In92         O94   2.241       .  S
In92         O95   2.256       .  S
In92        O103   2.307       .  S
In92         O97   2.189       .  S
In92         O99   2.274       .  S
In92        O100   2.219       .  S
In92        O101   2.224       .  S
In92        O104   2.282       .  S
C93          O99   1.266       .  A
C93         O101   1.259       .  A
O94         C102   1.257       .  A
O95         C102   1.258       .  A
C96         O103   1.267       .  A
C96          O97   1.249       .  A
C96         C906   1.496       .  S
C98         O100   1.257       .  A
C98         O104   1.262       .  A
C105        C106   1.543       .  S
C105        C111   1.551       .  S
C105        C109   1.531       .  S
C105        C890   1.537       .  S
C106        H113   1.083       .  S
C106        C107   1.363       .  D
C107        C108   1.534       .  S
C107        C842   1.479       .  S
C108        C112   1.537       .  S
C108        C110   1.543       .  S
C108        H114   1.105       .  S
C109        H115   1.079       .  S
C109        C110   1.363       .  D
C110        C858   1.489       .  S
C111        H116   1.086       .  S
C111        C112   1.370       .  D
C112        C874   1.502       .  S
C117        C118   1.539       .  S
C117        C123   1.548       .  S
C117        C121   1.552       .  S
C117        C893   1.539       .  S
C118        H125   1.086       .  S
C118        C119   1.360       .  D
C119        C120   1.533       .  S
C119       C1005   1.484       .  S
C120        C124   1.541       .  S
C120        C122   1.544       .  S
C120        H126   1.111       .  S
C121        H127   1.079       .  S
C121        C122   1.365       .  D
C122        C973   1.488       .  S
C123        H128   1.083       .  S
C123        C124   1.366       .  D
C124        C826   1.502       .  S
C129        C130   1.541       .  S
C129        C135   1.553       .  S
C129        C133   1.544       .  S
C129        C810   1.544       .  S
C130        H137   1.078       .  S
C130        C131   1.366       .  D
C131        C132   1.544       .  S
C131        C778   1.496       .  S
C132        C136   1.543       .  S
C132        C134   1.541       .  S
C132        H138   1.111       .  S
C133        H139   1.082       .  S
C133        C134   1.363       .  D
C134        C762   1.489       .  S
C135        H140   1.085       .  S
C135        C136   1.364       .  D
C136        C794   1.499       .  S
C141        C142   1.551       .  S
C141        C147   1.551       .  S
C141        C145   1.541       .  S
C141        C813   1.554       .  S
C142        H149   1.080       .  S
C142        C143   1.366       .  D
C143        C144   1.537       .  S
C143        C749   1.489       .  S
C144        C148   1.545       .  S
C144        C146   1.536       .  S
C144        H150   1.111       .  S
C145        H151   1.086       .  S
C145        C146   1.363       .  D
C146        C733   1.488       .  S
C147        H152   1.080       .  S
C147        C148   1.372       .  D
C148        C877   1.510       .  S
C153        C154   1.557       .  S
C153        C159   1.540       .  S
C153        C157   1.555       .  S
C153        C714   1.561       .  S
C154        H161   1.084       .  S
C154        C155   1.368       .  D
C155        C156   1.535       .  S
C155        C685   1.489       .  S
C156        C160   1.536       .  S
C156        C158   1.542       .  S
C156        H162   1.111       .  S
C157        H163   1.078       .  S
C157        C158   1.377       .  D
C158        C698   1.505       .  S
C159        H164   1.087       .  S
C159        C160   1.360       .  D
C160        C797   1.493       .  S
C165        C166   1.547       .  S
C165        C171   1.542       .  S
C165        C169   1.551       .  S
C165        C717   1.558       .  S
C166        H173   1.083       .  S
C166        C167   1.356       .  D
C167        C168   1.536       .  S
C167        C909   1.482       .  S
C168        C172   1.541       .  S
C168        C170   1.546       .  S
C168        H174   1.107       .  S
C169        H175   1.077       .  S
C169        C170   1.380       .  D
C170        C938   1.510       .  S
C171        H176   1.086       .  S
C171        C172   1.369       .  D
C172        C829   1.506       .  S
In177       O179   2.240       .  S
In177       O180   2.256       .  S
In177       O188   2.227   1_554  S
In177       O182   2.271       .  S
In177       O184   2.271       .  S
In177       O185   2.220       .  S
In177       O186   2.218       .  S
In177       O189   2.276       .  S
C178        O184   1.267       .  A
C178        O186   1.260       .  A
C178        C191   1.466   1_565  S
O179        C187   1.256       .  A
O180        C187   1.257       .  A
C181        O188   1.255   1_554  A
C181        O182   1.264       .  A
C181       C1893   1.482   1_554  S
C183        O185   1.256       .  A
C183        O189   1.262       .  A
C183        C204   1.463       .  S
C187        C239   1.457       .  S
In190       O193   2.252       .  S
In190       O201   2.245       .  S
In190       O198   2.241       .  S
In190       O199   2.281       .  S
In190       O202   2.277       .  S
In190      O1224   2.241       .  S
In190      O1227   2.276       .  S
In190      O1229   2.216       .  S
C191        O197   1.259       .  A
C191       O1231   1.264   1_554  A
O192      In1222   2.241   1_554  S
O192        C200   1.259   1_554  A
O193       C1232   1.257       .  A
C194        O195   1.262       .  A
C194       O1233   1.255   1_554  A
C194        C666   1.485       .  S
O195      In1222   2.268   1_554  S
C196        O198   1.257       .  A
C196        O202   1.263       .  A
C196        C217   1.470       .  S
O197      In1222   2.223   1_554  S
O199       C1223   1.264       .  A
C200       O1225   1.258       .  A
C200       C1284   1.454       .  S
O201       C1226   1.257       .  A
In203       O205   2.232       .  S
In203       O206   2.243       .  S
In203       O214   2.213       .  S
In203       O208   2.279       .  S
In203       O210   2.274       .  S
In203       O211   2.277       .  S
In203       O212   2.223       .  S
In203       O215   2.218       .  S
C204        O210   1.261       .  A
C204        O212   1.256       .  A
O205        C213   1.258       .  A
O206        C213   1.260       .  A
C207        O214   1.255       .  A
C207        O208   1.265       .  A
C207        C845   1.486       .  S
C209        O211   1.264       .  A
C209        O215   1.258       .  A
C209        C222   1.466   1_565  S
C213        C265   1.452       .  S
In216       O218   2.251       .  S
In216       O219   2.254       .  S
In216       O227   2.213       .  S
In216       O221   2.271       .  S
In216       O223   2.271       .  S
In216       O224   2.289       .  S
In216       O225   2.232       .  S
In216       O228   2.225       .  S
C217        O223   1.264       .  A
C217        O225   1.261       .  A
O218        C226   1.256       .  A
O219        C226   1.255       .  A
C220        O227   1.256       .  A
C220        O221   1.267       .  A
C220        C653   1.483       .  S
C222        O224   1.260       .  A
C222        O228   1.253       .  A
C226        C278   1.458       .  S
In229       O231   2.259       .  S
In229       O232   2.241       .  S
In229       O234   2.249       .  S
In229       O236   2.286       .  S
In229       O237   2.218   1_554  S
In229       O238   2.223       .  S
In229       O241   2.261       .  S
In229      O1272   2.262       .  S
C230        O236   1.263       .  A
C230        O238   1.255       .  A
C230        C261   1.467       .  S
O231        C239   1.258       .  A
O232        C239   1.255       .  A
C233        O234   1.258       .  A
C233       O1272   1.261       .  A
C233       C1778   1.485   1_554  S
C235        O237   1.261   1_554  A
C235        O241   1.264       .  A
C235        C248   1.462   1_564  S
O240      In1261   2.277       .  S
O240       C1265   1.263       .  A
In242       O244   2.255       .  S
In242       O245   2.241       .  S
In242       O249   2.261       .  S
In242       O251   2.209       .  S
In242       O254   2.290       .  S
In242      O1285   2.222       .  S
In242      O1279   2.278       .  S
In242      O1282   2.203       .  S
C243        O249   1.264       .  A
C243        O251   1.261       .  A
C243        C274   1.461       .  S
O244        C252   1.257       .  A
O245        C252   1.255       .  A
C246        O253   1.251       .  A
C246        O247   1.264   1_554  A
C246        C634   1.487       .  S
O247      In1274   2.291       .  S
C248        O250   1.257       .  A
C248       O1286   1.265   1_556  A
O250      In1274   2.213       .  S
C252       C1232   1.456       .  S
O253      In1274   2.207   1_554  S
O254       C1280   1.266       .  A
In255       O257   2.250       .  S
In255       O258   2.237       .  S
In255       O266   2.228       .  S
In255       O260   2.261       .  S
In255       O262   2.240       .  S
In255       O263   2.219       .  S
In255       O264   2.278       .  S
In255       O267   2.274       .  S
C256        O262   1.256       .  A
C256        O264   1.262       .  A
C256        C269   1.470   1_565  S
O257        C265   1.257       .  A
O258        C265   1.255       .  A
C259        O266   1.257       .  A
C259        O260   1.263       .  A
C259        C730   1.490       .  S
C261        O263   1.260       .  A
C261        O267   1.265       .  A
In268       O270   2.254       .  S
In268       O271   2.238       .  S
In268       O279   2.203       .  S
In268       O273   2.263       .  S
In268       O275   2.268       .  S
In268       O276   2.211       .  S
In268       O277   2.244       .  S
In268       O280   2.277       .  S
C269        O275   1.261       .  A
C269        O277   1.260       .  A
O270        C278   1.259       .  A
O271        C278   1.256       .  A
C272        O279   1.255       .  A
C272        O273   1.267       .  A
C272        C618   1.474       .  S
C274        O276   1.255       .  A
C274        O280   1.264       .  A
In281       O283   2.255       .  S
In281       O284   2.235       .  S
In281       O292   2.208       .  S
In281       O286   2.270       .  S
In281       O288   2.281       .  S
In281       O289   2.228       .  S
In281       O290   2.220       .  S
In281       O293   2.265       .  S
C282        O288   1.263       .  A
C282        O290   1.257       .  A
C282        C295   1.466   1_655  S
O283        C291   1.259       .  A
O284        C291   1.257       .  A
C285        O292   1.253       .  A
C285        O286   1.267       .  A
C285        C605   1.490       .  S
C287        O289   1.258       .  A
C287        O293   1.262       .  A
C287        C308   1.463       .  S
C291        C343   1.457       .  S
In294       O296   2.233       .  S
In294       O297   2.250       .  S
In294       O305   2.225       .  S
In294       O299   2.265       .  S
In294       O301   2.215       .  S
In294       O302   2.217       .  S
In294       O303   2.276       .  S
In294       O306   2.291       .  S
C295        O301   1.259       .  A
C295        O303   1.266       .  A
O296        C304   1.255       .  A
O297        C304   1.259       .  A
C298        O305   1.257       .  A
C298        O299   1.263       .  A
C298        C701   1.471       .  S
C300        O302   1.256       .  A
C300        O306   1.262       .  A
C300        C321   1.468       .  S
C304        C356   1.452       .  S
In307       O309   2.233       .  S
In307       O310   2.253       .  S
In307       O314   2.270       .  S
In307       O316   2.237       .  S
In307       O319   2.289       .  S
In307      O1350   2.212       .  S
In307      O1344   2.278       .  S
In307      O1347   2.224       .  S
C308        O314   1.260       .  A
C308        O316   1.256       .  A
O309        C317   1.260       .  A
O310        C317   1.262       .  A
C311        O318   1.255       .  A
C311        O312   1.265       .  A
C311        C586   1.473       .  S
O312      In1339   2.268   1_554  S
C313        O315   1.255   1_454  A
C313       O1351   1.264   1_455  A
C313        C326   1.468       .  S
O315      In1339   2.215       .  S
C317        C369   1.460       .  S
O318      In1339   2.214   1_554  S
O319       C1345   1.265       .  A
In320       O322   2.248       .  S
In320       O323   2.241       .  S
In320       O325   2.284       .  S
In320       O327   2.289       .  S
In320       O328   2.218       .  S
In320       O329   2.206       .  S
In320       O332   2.285       .  S
In320      O1363   2.230       .  S
C321        O327   1.267       .  A
C321        O329   1.257       .  A
O322        C330   1.258       .  A
O323        C330   1.258       .  A
C324        O325   1.264       .  A
C324       O1363   1.253       .  A
C324       C1714   1.492       .  S
C326        O328   1.258       .  A
C326        O332   1.263       .  A
C330        C382   1.455       .  S
O331      In1352   2.237       .  S
O331       C1356   1.253       .  A
In333       O335   2.231       .  S
In333       O336   2.254       .  S
In333       O344   2.216       .  S
In333       O338   2.284       .  S
In333       O340   2.230       .  S
In333       O341   2.224       .  S
In333       O342   2.266       .  S
In333       O345   2.271       .  S
C334        O340   1.256       .  A
C334        O342   1.259       .  A
C334        C365   1.461       .  S
O335        C343   1.258       .  A
O336        C343   1.261       .  A
C337        O344   1.255       .  A
C337        O338   1.265       .  A
C337        C573   1.486       .  S
C339        O341   1.257       .  A
C339        O345   1.263       .  A
C339        C352   1.464   1_655  S
In346       O348   2.242       .  S
In346       O349   2.233       .  S
In346       O357   2.265       .  S
In346       O351   2.200       .  S
In346       O353   2.272       .  S
In346       O354   2.227       .  S
In346       O355   2.215       .  S
In346       O358   2.268       .  S
C347        O353   1.263       .  A
C347        O355   1.257       .  A
C347        C378   1.463       .  S
O348        C356   1.259       .  A
O349        C356   1.258       .  A
C350        O357   1.267       .  A
C350        O351   1.251       .  A
C350        C781   1.481       .  S
C352        O354   1.258       .  A
C352        O358   1.262       .  A
In359       O362   2.242       .  S
In359       O370   2.225       .  S
In359       O367   2.257       .  S
In359       O368   2.231       .  S
In359       O371   2.220       .  S
In359      O1393   2.262       .  S
In359      O1396   2.265       .  S
In359      O1398   2.271       .  S
C360        O366   1.261   1_455  A
C360       O1400   1.255   1_454  A
C360        C373   1.467       .  S
O361      In1391   2.256   1_554  S
O361       C1401   1.258   1_554  A
O362        C369   1.255       .  A
C363        O364   1.263       .  A
C363       O1402   1.255       .  A
C363        C554   1.473       .  S
O364      In1391   2.273   1_554  S
C365        O367   1.264       .  A
C365        O371   1.261       .  A
O366      In1391   2.289   1_554  S
O368       C1392   1.257   1_655  A
C369       O1393   1.258       .  A
O370       C1395   1.256       .  A
In372       O374   2.234       .  S
In372       O375   2.250       .  S
In372       O383   2.238       .  S
In372       O377   2.267       .  S
In372       O379   2.213       .  S
In372       O380   2.217       .  S
In372       O381   2.287       .  S
In372       O384   2.280       .  S
C373        O379   1.257       .  A
C373        O381   1.265       .  A
O374        C382   1.256       .  A
O375        C382   1.260       .  A
C376        O383   1.254       .  A
C376        O377   1.264       .  A
C376       C1797   1.491       .  S
C378        O380   1.257       .  A
C378        O384   1.264       .  A
C385        C386   1.543       .  S
C385        C391   1.543       .  S
C385        C389   1.553       .  S
C385        C538   1.541       .  S
C386        H393   1.081       .  S
C386        C387   1.367       .  D
C387        C388   1.544       .  S
C387        C637   1.498       .  S
C388        C392   1.542       .  S
C388        C390   1.535       .  S
C388        H394   1.111       .  S
C389        H395   1.084       .  S
C389        C390   1.362       .  D
C390        C621   1.484       .  S
C391        H396   1.086       .  S
C391        C392   1.364       .  D
C392        C522   1.493       .  S
C397        C398   1.551       .  S
C397        C403   1.553       .  S
C397        C401   1.530       .  S
C397        C541   1.538       .  S
C398        H405   1.085       .  S
C398        C399   1.369       .  D
C399        C400   1.534       .  S
C399        C925   1.487       .  S
C400        C404   1.536       .  S
C400        C402   1.536       .  S
C400        H406   1.112       .  S
C401        H407   1.085       .  S
C401        C402   1.358       .  D
C402        C957   1.475       .  S
C403        H408   1.085       .  S
C403        C404   1.365       .  D
C404        C506   1.491       .  S
C409        C410   1.543       .  S
C409        C415   1.547       .  S
C409        C413   1.539       .  S
C409        C490   1.540       .  S
C410        H417   1.081       .  S
C410        C411   1.363       .  D
C411        C412   1.541       .  S
C411        C570   1.485       .  S
C412        C416   1.539       .  S
C412        C414   1.545       .  S
C412        H418   1.110       .  S
C413        H419   1.082       .  S
C413        C414   1.366       .  D
C414        C557   1.497       .  S
C415        H420   1.086       .  S
C415        C416   1.362       .  D
C416        C474   1.491       .  S
C421        C422   1.540       .  S
C421        C427   1.544       .  S
C421        C425   1.551       .  S
C421        C493   1.540       .  S
C422        H429   1.086       .  S
C422        C423   1.362       .  D
C423        C424   1.531       .  S
C423       C1021   1.485       .  S
C424        C428   1.538       .  S
C424        C426   1.542       .  S
C424        H430   1.105       .  S
C425        H431   1.081       .  S
C425        C426   1.364       .  D
C426        C989   1.489       .  S
C427        H432   1.083       .  S
C427        C428   1.369       .  D
C428        C509   1.497       .  S
C433        C434   1.543       .  S
C433        C439   1.551       .  S
C433        C437   1.555       .  S
C433        C458   1.550       .  S
C434        H441   1.086       .  S
C434        C435   1.363       .  D
C435        C436   1.529       .  S
C435        C589   1.483       .  S
C436        C440   1.531       .  S
C436        C438   1.540       .  S
C436        H442   1.112       .  S
C437        H443   1.078       .  S
C437        C438   1.372       .  D
C438        C602   1.498       .  S
C439        H444   1.085       .  S
C439        C440   1.363       .  D
C440        C477   1.483       .  S
C445        C446   1.553       .  S
C445        C451   1.546       .  S
C445        C449   1.539       .  S
C445        C461   1.548       .  S
C446        H453   1.079       .  S
C446        C447   1.369       .  D
C447        C448   1.548       .  S
C447        C650   1.502       .  S
C448        C452   1.544       .  S
C448        C450   1.538       .  S
C448        H454   1.111       .  S
C449        H455   1.086       .  S
C449        C450   1.359       .  D
C450        C669   1.491       .  S
C451        H456   1.085       .  S
C451        C452   1.367       .  D
C452        C525   1.496       .  S
C457        C458   1.411       .  A
C457        C462   1.410       .  A
C457        H464   1.082       .  S
C458        C459   1.426       .  A
C459        C466   1.521       .  S
C459        C460   1.411       .  A
C460        C461   1.412       .  A
C460        H465   1.081       .  S
C461        C462   1.430       .  A
C462        C463   1.524       .  S
C463        F467   1.385       .  S
C463        F468   1.383       .  S
C463        F469   1.376       .  S
C466        F470   1.381       .  S
C466        F471   1.379       .  S
C466        F472   1.385       .  S
C473        C474   1.402       .  A
C473        C478   1.403       .  A
C473        H480   1.085       .  S
C474        C475   1.417       .  A
C475        C482   1.516       .  S
C475        C476   1.410       .  A
C476        C477   1.403       .  A
C476        H481   1.081       .  S
C477        C478   1.420       .  A
C478        C479   1.520       .  S
C479        F483   1.384       .  S
C479        F484   1.378       .  S
C479        F485   1.383       .  S
C482        F486   1.379       .  S
C482        F487   1.381       .  S
C482        F488   1.385       .  S
C489        C490   1.409       .  A
C489        C494   1.405       .  A
C489        H496   1.082       .  S
C490        C491   1.424       .  A
C491        C498   1.523       .  S
C491        C492   1.408       .  A
C492        C493   1.413       .  A
C492        H497   1.081       .  S
C493        C494   1.429       .  A
C494        C495   1.525       .  S
C495        F499   1.385       .  S
C495        F500   1.378       .  S
C495        F501   1.383       .  S
C498        F502   1.385       .  S
C498        F503   1.380       .  S
C498        F504   1.383       .  S
C505        C506   1.403       .  A
C505        C510   1.408       .  A
C505        H512   1.083       .  S
C506        C507   1.424       .  A
C507        C514   1.521       .  S
C507        C508   1.405       .  A
C508        C509   1.403       .  A
C508        H513   1.085       .  S
C509        C510   1.421       .  A
C510        C511   1.518       .  S
C511        F515   1.385       .  S
C511        F516   1.380       .  S
C511        F517   1.379       .  S
C514        F518   1.383       .  S
C514        F519   1.376       .  S
C514        F520   1.384       .  S
C521        C522   1.402       .  A
C521        C526   1.410       .  A
C521        H528   1.083       .  S
C522        C523   1.415       .  A
C523        C530   1.512       .  S
C523        C524   1.412       .  A
C524        C525   1.405       .  A
C524        H529   1.083       .  S
C525        C526   1.417       .  A
C526        C527   1.513       .  S
C527        F531   1.385       .  S
C527        F532   1.380       .  S
C527        F533   1.380       .  S
C530        F534   1.380       .  S
C530        F535   1.383       .  S
C530        F536   1.384       .  S
C537        C538   1.412       .  A
C537        C542   1.408       .  A
C537        H544   1.079       .  S
C538        C539   1.429       .  A
C539        C546   1.526       .  S
C539        C540   1.404       .  A
C540        C541   1.408       .  A
C540        H545   1.082       .  S
C541        C542   1.425       .  A
C542        C543   1.524       .  S
C543        F547   1.384       .  S
C543        F548   1.377       .  S
C543        F549   1.383       .  S
C546        F550   1.376       .  S
C546        F551   1.384       .  S
C546        F552   1.385       .  S
C553        C554   1.400       .  A
C553        C558   1.413       .  A
C553        H560   1.083       .  S
C554        C555   1.411       .  A
C555        C562   1.519       .  S
C555        C556   1.400       .  A
C556        C557   1.405       .  A
C556        H561   1.080       .  S
C557        C558   1.428       .  A
C558        C559   1.522       .  S
C559        F563   1.385       .  S
C559        F564   1.382       .  S
C559        F565   1.381       .  S
C562        F566   1.384       .  S
C562        F567   1.383       .  S
C562        F568   1.383       .  S
C569        C570   1.403       .  A
C569        C574   1.410       .  A
C569        H576   1.083       .  S
C570        C571   1.411       .  A
C571        C578   1.512       .  S
C571        C572   1.404       .  A
C572        C573   1.406       .  A
C572        H577   1.083       .  S
C573        C574   1.418       .  A
C574        C575   1.517       .  S
C575        F579   1.385       .  S
C575        F580   1.383       .  S
C575        F581   1.382       .  S
C578        F582   1.376       .  S
C578        F583   1.383       .  S
C578        F584   1.385       .  S
C585        C586   1.397       .  A
C585        C590   1.405       .  A
C585        H592   1.083       .  S
C586        C587   1.419       .  A
C587       C1626   1.520       .  S
C587        C588   1.407       .  A
C588        C589   1.401       .  A
C588        H593   1.083       .  S
C589        C590   1.415       .  A
C590        C591   1.509       .  S
C591        F595   1.384       .  S
C591        F596   1.383       .  S
C591        F597   1.379       .  S
C594       C1619   1.519       .  S
C594        F598   1.384       .  S
C594        F599   1.382       .  S
C594        F600   1.385       .  S
C601        C602   1.404       .  A
C601        C606   1.404       .  A
C601        H608   1.082       .  S
C602        C603   1.422       .  A
C603        C610   1.517       .  S
C603        C604   1.410       .  A
C604        C605   1.404       .  A
C604        H609   1.082       .  S
C605        C606   1.425       .  A
C606        C607   1.524       .  S
C607        F611   1.384       .  S
C607        F612   1.383       .  S
C607        F613   1.384       .  S
C610        F614   1.378       .  S
C610        F615   1.380       .  S
C610        F616   1.385       .  S
C617        C618   1.398       .  A
C617        C622   1.404       .  A
C617        H624   1.083       .  S
C618        C619   1.420       .  A
C619        C626   1.518       .  S
C619        C620   1.405       .  A
C620        C621   1.398       .  A
C620        H625   1.083       .  S
C621        C622   1.417       .  A
C622        C623   1.509       .  S
C623        F627   1.385       .  S
C623        F628   1.377       .  S
C623        F629   1.380       .  S
C626        F630   1.382       .  S
C626        F631   1.383       .  S
C626        F632   1.385       .  S
C633        C634   1.405       .  A
C633        C638   1.415       .  A
C633        H640   1.083       .  S
C634        C635   1.422       .  A
C635        C642   1.524       .  S
C635        C636   1.397       .  A
C636        C637   1.400       .  A
C636        H641   1.077       .  S
C637        C638   1.426       .  A
C638        C639   1.520       .  S
C639        F643   1.381       .  S
C639        F644   1.378       .  S
C639        F645   1.385       .  S
C642        F646   1.383       .  S
C642        F647   1.383       .  S
C642        F648   1.385       .  S
C649        C650   1.402       .  A
C649        C654   1.399       .  A
C649        H656   1.078       .  S
C650        C651   1.428       .  A
C651        C658   1.520       .  S
C651        C652   1.414       .  A
C652        C653   1.402       .  A
C652        H657   1.083       .  S
C653        C654   1.420       .  A
C654        C655   1.524       .  S
C655        F659   1.386       .  S
C655        F660   1.382       .  S
C655        F661   1.383       .  S
C658        F662   1.381       .  S
C658        F663   1.378       .  S
C658        F664   1.385       .  S
C665        C666   1.400       .  A
C665        C670   1.405       .  A
C665        H672   1.083       .  S
C666        C667   1.419       .  A
C667        C674   1.516   1_554  S
C667        C668   1.410       .  A
C668        C669   1.402       .  A
C668        H673   1.083       .  S
C669        C670   1.417       .  A
C670        C671   1.510       .  S
C671        F675   1.385       .  S
C671        F676   1.377       .  S
C671        F677   1.382       .  S
C674        F678   1.382       .  S
C674        F680   1.385       .  S
C674       F1711   1.384       .  S
F679       C1706   1.384       .  S
C681        C682   1.406       .  A
C681        C686   1.413       .  A
C681        H688   1.084       .  S
C682       C1356   1.497       .  S
C682        C683   1.427       .  A
C683        C690   1.522       .  S
C683        C684   1.406       .  A
C684        C685   1.397       .  A
C684        H689   1.084       .  S
C685        C686   1.423       .  A
C686        C687   1.520       .  S
C687        F691   1.383       .  S
C687        F692   1.383       .  S
C687        F693   1.378       .  S
C690        F695   1.383       .  S
C690        F696   1.385       .  S
C690       F1726   1.383       .  S
F694       C1722   1.383       .  S
C697        C698   1.411       .  A
C697        C702   1.407       .  A
C697        H704   1.081       .  S
C698        C699   1.425       .  A
C699        C706   1.514       .  S
C699        C700   1.409       .  A
C700        C701   1.396       .  A
C700        H705   1.083       .  S
C701        C702   1.410       .  A
C702        C703   1.519       .  S
C703        F707   1.385       .  S
C703        F708   1.383       .  S
C703        F709   1.384       .  S
C706        F710   1.380       .  S
C706        F711   1.378       .  S
C706        F712   1.385       .  S
C713        C714   1.416       .  A
C713        C718   1.415       .  A
C713        H720   1.080       .  S
C714        C715   1.434       .  A
C715        C722   1.523       .  S
C715        C716   1.412       .  A
C716        C717   1.409       .  A
C716        H721   1.078       .  S
C717        C718   1.424       .  A
C718        C719   1.520       .  S
C719        F724   1.377       .  S
C719        F725   1.381       .  S
C719       F1755   1.386       .  S
C722        F726   1.376       .  S
C722        F727   1.380       .  S
C722        F728   1.385       .  S
F723       C1751   1.386       .  S
C729        C730   1.407       .  A
C729        C734   1.405       .  A
C729        H736   1.083       .  S
C730        C731   1.421       .  A
C731        C738   1.519       .  S
C731        C732   1.412       .  A
C732        C733   1.403       .  A
C732        H737   1.083       .  S
C733        C734   1.412       .  A
C734        C735   1.514       .  S
C735        F739   1.384       .  S
C735        F740   1.381       .  S
C735        F741   1.381       .  S
C738        F742   1.383       .  S
C738        F743   1.384       .  S
C738        F744   1.384       .  S
C745        C746   1.405       .  A
C745        C750   1.409       .  A
C745       H1784   1.083       .  S
C746       C1265   1.486       .  S
C746        C747   1.419       .  A
C747        C754   1.519       .  S
C747        C748   1.409       .  A
C748        C749   1.403       .  A
C748        H753   1.081       .  S
C749        C750   1.419       .  A
C750        C751   1.521       .  S
C751        F756   1.382       .  S
C751        F757   1.380       .  S
C751       F1787   1.384       .  S
H752       C1777   1.083   1_554  S
C754        F758   1.384       .  S
C754        F759   1.382       .  S
C754        F760   1.385       .  S
F755       C1783   1.385   1_554  S
C761        C762   1.398       .  A
C761        C766   1.409       .  A
C761        H768   1.082       .  S
C762        C763   1.417       .  A
C763        C770   1.510       .  S
C763       C1796   1.404       .  A
C764       C1795   1.406       .  A
C764       C1797   1.406   1_556  A
C764        H769   1.082       .  S
C765       C1408   1.485       .  S
C765        C766   1.423       .  A
C765       C1796   1.401       .  A
C766        C767   1.517       .  S
C767        F771   1.385       .  S
C767        F772   1.383       .  S
C767        F773   1.384       .  S
C770        F774   1.377       .  S
C770        F775   1.382       .  S
C770       F1808   1.385       .  S
F776       C1802   1.384       .  S
C777        C778   1.403       .  A
C777        C782   1.398       .  A
C777        H784   1.058       .  S
C778        C779   1.424       .  A
C779        C786   1.520       .  S
C779        C780   1.410       .  A
C780        C781   1.403       .  A
C780        H785   1.078       .  S
C781        C782   1.421       .  A
C782        C783   1.527       .  S
C783        F787   1.386       .  S
C783        F788   1.383       .  S
C783        F789   1.383       .  S
C786        F790   1.380       .  S
C786        F791   1.377       .  S
C786        F792   1.385       .  S
C793        C794   1.408       .  A
C793        C798   1.414       .  A
C793        H800   1.087       .  S
C794        C795   1.415       .  A
C795        C802   1.510       .  S
C795        C796   1.409       .  A
C796        C797   1.401       .  A
C796        H801   1.086       .  S
C797        C798   1.416       .  A
C798        C799   1.515       .  S
C799        F803   1.385       .  S
C799        F804   1.383       .  S
C799        F805   1.382       .  S
C802        F806   1.383       .  S
C802        F807   1.384       .  S
C802        F808   1.380       .  S
C809        C810   1.404       .  A
C809        C814   1.403       .  A
C809        H816   1.083       .  S
C810        C811   1.427       .  A
C811        C818   1.523       .  S
C811        C812   1.413       .  A
C812        C813   1.415       .  A
C812        H817   1.079       .  S
C813        C814   1.430       .  A
C814        C815   1.517       .  S
C815        F819   1.385       .  S
C815        F820   1.381       .  S
C815        F821   1.372       .  S
C818        F822   1.383       .  S
C818        F823   1.380       .  S
C818        F824   1.385       .  S
C825        C826   1.403       .  A
C825        C830   1.414       .  A
C825        H832   1.083       .  S
C826        C827   1.423       .  A
C827        C834   1.519       .  S
C827        C828   1.413       .  A
C828        C829   1.405       .  A
C828        H833   1.083       .  S
C829        C830   1.424       .  A
C830        C831   1.518       .  S
C831        F835   1.385       .  S
C831        F836   1.378       .  S
C831        F837   1.379       .  S
C834        F838   1.381       .  S
C834        F839   1.381       .  S
C834        F840   1.385       .  S
C841        C842   1.404       .  A
C841        C846   1.411       .  A
C841        H848   1.083       .  S
C842        C843   1.409       .  A
C843        C850   1.516       .  S
C843        C844   1.403       .  A
C844        C845   1.408       .  A
C844        H849   1.083       .  S
C845        C846   1.419       .  A
C846        C847   1.518       .  S
C847        F851   1.385       .  S
C847        F852   1.384       .  S
C847        F853   1.383       .  S
C850        F854   1.380       .  S
C850        F855   1.383       .  S
C850        F856   1.384       .  S
C857        C858   1.405       .  A
C857        C862   1.401       .  A
C857        H864   1.082       .  S
C858        C859   1.427       .  A
C859       C1898   1.524       .  S
C859       C1892   1.408       .  A
C860       C1891   1.411       .  A
C860       C1893   1.404       .  A
C860        H865   1.083   1_556  S
C861       C1213   1.471       .  S
C861        C862   1.412       .  A
C861       C1892   1.399       .  A
C862        C863   1.519       .  S
C863        F867   1.385       .  S
C863        F868   1.384       .  S
C863        F869   1.383       .  S
C866       C1891   1.523   1_554  S
C866        F871   1.382   1_554  S
C866        F872   1.385       .  S
C866       F1902   1.382       .  S
F870       C1898   1.380       .  S
C873        C874   1.403       .  A
C873        C878   1.410       .  A
C873        H880   1.082       .  S
C874        C875   1.420       .  A
C875        C882   1.518       .  S
C875        C876   1.410       .  A
C876        C877   1.407       .  A
C876        H881   1.083       .  S
C877        C878   1.426       .  A
C878        C879   1.515       .  S
C879        F883   1.385       .  S
C879        F884   1.376       .  S
C879        F885   1.380       .  S
C882        F886   1.380       .  S
C882        F887   1.380       .  S
C882        F888   1.385       .  S
C889        C890   1.406       .  A
C889        C894   1.404       .  A
C889        H896   1.084       .  S
C890        C891   1.423       .  A
C891        C898   1.522       .  S
C891        C892   1.408       .  A
C892        C893   1.413       .  A
C892        H897   1.081       .  S
C893        C894   1.430       .  A
C894        C895   1.525       .  S
C895        F899   1.385       .  S
C895        F900   1.376       .  S
C895        F901   1.382       .  S
C898        F902   1.381       .  S
C898        F903   1.383       .  S
C898        F904   1.385       .  S
C905        C906   1.407       .  A
C905        C910   1.413       .  A
C905        H912   1.082       .  S
C906        C907   1.429       .  A
C907        C914   1.519       .  S
C907        C908   1.404       .  A
C908        C909   1.393       .  A
C908        H913   1.084       .  S
C909        C910   1.418       .  A
C910        C911   1.520       .  S
C911        F915   1.381       .  S
C911        F916   1.379       .  S
C911        F917   1.384       .  S
C914        F918   1.384       .  S
C914        F919   1.382       .  S
C914        F920   1.384       .  S
C921        C922   1.404       .  A
C921        C926   1.400       .  A
C921        H928   1.083       .  S
C922        C923   1.419       .  A
C923        C930   1.515       .  S
C923        C924   1.415       .  A
C924        C925   1.406       .  A
C924        H929   1.083       .  S
C925        C926   1.412       .  A
C926        C927   1.513       .  S
C927        F931   1.385       .  S
C927        F932   1.376       .  S
C927        F933   1.381       .  S
C930        F934   1.383       .  S
C930        F935   1.382       .  S
C930        F936   1.385       .  S
C937        C938   1.413       .  A
C937        C942   1.407       .  A
C937        H944   1.081       .  S
C938        C939   1.428       .  A
C939        C946   1.518       .  S
C939       C1972   1.412       .  A
C940       C1971   1.409   1_554  A
C940       C1973   1.400       .  A
C940        H945   1.083       .  S
C941       C1102   1.474       .  S
C941        C942   1.409       .  A
C941       C1972   1.398       .  A
C942        C943   1.521       .  S
C943        F947   1.384       .  S
C943        F949   1.384       .  S
C943       F1980   1.383       .  S
C946        F951   1.378       .  S
C946       F1982   1.379       .  S
C946       F1984   1.384       .  S
F948       C1975   1.383       .  S
F950       C1978   1.380       .  S
F952       C1978   1.384       .  S
C953        C954   1.403       .  A
C953        C958   1.403       .  A
C953        H960   1.084       .  S
C954        C955   1.414       .  A
C955        C962   1.517       .  S
C955        C956   1.405       .  A
C956        C957   1.402       .  A
C956        H961   1.082       .  S
C957        C958   1.417       .  A
C958        C959   1.522       .  S
C959        F964   1.381       .  S
C959        F965   1.382       .  S
C959       F1995   1.385       .  S
C962        F966   1.383       .  S
C962        F967   1.383       .  S
C962        F968   1.385       .  S
F963       C1991   1.385       .  S
C969        C970   1.403       .  A
C969        C974   1.412       .  A
C969        H976   1.083       .  S
C970        C971   1.419       .  A
C971        C978   1.516       .  S
C971        C972   1.396       .  A
C972        C973   1.395       .  A
C972        H977   1.082       .  S
C973        C974   1.423       .  A
C974        C975   1.518       .  S
C975        F979   1.385       .  S
C975        F980   1.379       .  S
C975        F981   1.381       .  S
C978        F982   1.383       .  S
C978        F983   1.383       .  S
C978        F984   1.385       .  S
C985        C986   1.407       .  A
C985        C990   1.412       .  A
C985        H992   1.083       .  S
C986        C987   1.426       .  A
C987        C994   1.523       .  S
C987        C988   1.400       .  A
C988        C989   1.398       .  A
C988        H993   1.083       .  S
C989        C990   1.420       .  A
C990        C991   1.521       .  S
C991        F995   1.385       .  S
C991        F996   1.379       .  S
C991        F997   1.381       .  S
C994        F998   1.383       .  S
C994        F999   1.383       .  S
C994       F1000   1.385       .  S
C1001      C1002   1.403       .  A
C1001      C1006   1.406       .  A
C1001      H1008   1.083       .  S
C1002      C1050   1.484       .  S
C1002      C2035   1.421       .  A
C1003      C1010   1.518       .  S
C1003      C2034   1.424       .  A
C1003      C2036   1.405   1_554  A
C1004      C1005   1.400       .  A
C1004      C2035   1.407       .  A
C1004      H1009   1.084       .  S
C1005      C1006   1.415       .  A
C1006      C1007   1.513       .  S
C1007      F1011   1.385       .  S
C1007      F1012   1.381       .  S
C1007      F1013   1.379       .  S
C1010      F1014   1.383       .  S
C1010      F1015   1.383       .  S
C1010      F1016   1.386       .  S
C1017      C1018   1.394       .  A
C1017      C1022   1.400       .  A
C1017      H1024   1.084       .  S
C1018      C1019   1.415       .  A
C1019      C1026   1.518   1_554  S
C1019      C1020   1.407       .  A
C1020      C1021   1.404       .  A
C1020      H1025   1.083       .  S
C1021      C1022   1.418       .  A
C1022      C1023   1.510       .  S
C1023      F1027   1.384       .  S
C1023      F1028   1.378       .  S
C1023      F1029   1.378       .  S
C1026      F1031   1.382       .  S
C1026      F1032   1.385       .  S
C1026      F2062   1.384       .  S
F1030      C2058   1.385       .  S
In1033     O1035   2.234       .  S
In1033     O1036   2.260   1_556  S
In1033     O1040   2.221       .  S
In1033     O1042   2.254       .  S
In1033     O1045   2.209       .  S
C1034      O1040   1.255       .  A
C1034      O1042   1.258       .  A
C1034      C1065   1.453       .  S
O1035      C1043   1.257       .  A
O1036      C1043   1.261   1_554  A
C1037      O1044   1.253       .  A
C1037      O1038   1.264       .  A
C1037      C2050   1.479       .  S
C1039      O1041   1.262       .  A
C1039      C1052   1.459       .  S
In1046     O1048   2.262       .  S
In1046     O1049   2.235       .  S
In1046     O1051   2.256       .  S
In1046     O1053   2.273       .  S
In1046     O1054   2.264       .  S
In1046     O1055   2.223       .  S
In1046     O1058   2.212       .  S
C1047      O1053   1.262       .  A
C1047      O1055   1.257       .  A
C1047      C1078   1.463       .  S
O1048      C1056   1.260       .  A
O1049      C1056   1.255       .  A
C1050      O1051   1.263       .  A
C1052      O1054   1.263       .  A
C1052      O1058   1.258       .  A
C1056      C1108   1.458       .  S
In1059     O1061   2.263       .  S
In1059     O1062   2.233       .  S
In1059     O1070   2.230       .  S
In1059     O1064   2.249       .  S
In1059     O1066   2.220       .  S
In1059     O1067   2.257       .  S
In1059     O1068   2.275       .  S
In1059     O1071   2.227       .  S
C1060      O1066   1.258       .  A
C1060      O1068   1.263       .  A
C1060      C1073   1.465       .  S
O1061      C1069   1.261       .  A
O1062      C1069   1.258       .  A
C1063      O1070   1.257       .  A
C1063      O1064   1.263       .  A
C1063      C2018   1.471       .  S
C1065      O1067   1.257       .  A
C1065      O1071   1.255       .  A
C1069      C1121   1.462       .  S
In1072     O1074   2.234       .  S
In1072     O1075   2.263       .  S
In1072     O1083   2.198       .  S
In1072     O1077   2.282       .  S
In1072     O1079   2.284       .  S
In1072     O1080   2.218       .  S
In1072     O1081   2.213       .  S
In1072     O1084   2.263       .  S
C1073      O1079   1.265       .  A
C1073      O1081   1.255       .  A
O1074      C1082   1.256       .  A
O1075      C1082   1.259       .  A
C1076      O1083   1.252       .  A
C1076      O1077   1.264       .  A
C1076      C2002   1.476       .  S
C1078      O1080   1.259       .  A
C1078      O1084   1.263       .  A
C1082      C1134   1.458       .  S
In1085     O1088   2.240       .  S
In1085     O1096   2.209   1_556  S
In1085     O1093   2.265       .  S
In1085     O1094   2.198       .  S
In1085     O1097   2.253       .  S
C1086      O1092   1.265       .  A
C1086      C1099   1.472       .  S
O1087      C1095   1.259       .  A
C1089      O1090   1.266       .  A
C1089      C1986   1.483       .  S
C1091      O1093   1.257       .  A
C1091      O1097   1.255       .  A
C1091      C1112   1.465       .  S
In1098     O1100   2.239       .  S
In1098     O1101   2.257       .  S
In1098     O1109   2.227       .  S
In1098     O1103   2.275       .  S
In1098     O1105   2.230       .  S
In1098     O1106   2.220       .  S
In1098     O1107   2.285       .  S
In1098     O1110   2.285       .  S
C1099      O1105   1.259       .  A
C1099      O1107   1.264       .  A
O1100      C1108   1.257       .  A
O1101      C1108   1.258       .  A
C1102      O1109   1.255       .  A
C1102      O1103   1.264       .  A
C1104      O1106   1.257       .  A
C1104      O1110   1.264       .  A
C1104      C1125   1.469       .  S
In1111     O1113   2.233       .  S
In1111     O1114   2.264       .  S
In1111     O1122   2.249       .  S
In1111     O1116   2.275       .  S
In1111     O1118   2.249       .  S
In1111     O1119   2.211       .  S
In1111     O1120   2.271       .  S
In1111     O1123   2.300       .  S
C1112      O1118   1.255       .  A
C1112      O1120   1.257       .  A
O1113      C1121   1.258       .  A
O1114      C1121   1.262       .  A
C1115      O1122   1.256       .  A
C1115      O1116   1.263       .  A
C1115      C1954   1.493       .  S
C1117      O1119   1.257       .  A
C1117      O1123   1.267       .  A
C1117      C1130   1.471       .  S
In1124     O1126   2.263       .  S
In1124     O1127   2.234       .  S
In1124     O1135   2.296       .  S
In1124     O1129   2.218       .  S
In1124     O1131   2.286       .  S
In1124     O1132   2.207       .  S
In1124     O1133   2.221       .  S
In1124     O1136   2.303       .  S
C1125      O1131   1.264       .  A
C1125      O1133   1.257       .  A
O1126      C1134   1.260       .  A
O1127      C1134   1.258       .  A
C1128      O1135   1.265       .  A
C1128      O1129   1.253       .  A
C1128      C1938   1.497       .  S
C1130      O1132   1.254       .  A
C1130      O1136   1.266       .  A
C1137      C1138   1.543       .  S
C1137      C1143   1.548       .  S
C1137      C1141   1.538       .  S
C1137      C1922   1.540       .  S
C1138      H1145   1.083       .  S
C1138      C1139   1.362       .  D
C1139      C1140   1.533       .  S
C1139      C1874   1.479       .  S
C1140      C1144   1.538       .  S
C1140      C1142   1.542       .  S
C1140      H1146   1.108       .  S
C1141      H1147   1.083       .  S
C1141      C1142   1.367       .  D
C1142      C1890   1.494       .  S
C1143      H1148   1.086       .  S
C1143      C1144   1.366       .  D
C1144      C1906   1.496       .  S
C1149      C1150   1.534       .  S
C1149      C1155   1.545       .  S
C1149      C1153   1.552       .  S
C1149      C1925   1.536       .  S
C1150      H1157   1.087       .  S
C1150      C1151   1.355       .  D
C1151      C1152   1.531       .  S
C1151      C2037   1.476       .  S
C1152      C1156   1.542       .  S
C1152      C1154   1.549       .  S
C1152      H1158   1.111       .  S
C1153      H1159   1.080       .  S
C1153      C1154   1.370       .  D
C1154      C2005   1.493       .  S
C1155      H1160   1.084       .  S
C1155      C1156   1.364       .  D
C1156      C1858   1.501       .  S
C1161      C1162   1.544       .  S
C1161      C1167   1.549       .  S
C1161      C1165   1.544       .  S
C1161      C1842   1.543       .  S
C1162      H1169   1.081       .  S
C1162      C1163   1.371       .  D
C1163      C1164   1.549       .  S
C1163      C1810   1.507       .  S
C1164      C1168   1.541       .  S
C1164      C1166   1.533       .  S
C1164      H1170   1.109       .  S
C1165      H1171   1.081       .  S
C1165      C1166   1.358       .  D
C1166      C1794   1.482       .  S
C1167      H1172   1.086       .  S
C1167      C1168   1.366       .  D
C1168      C1826   1.493       .  S
C1173      C1174   1.558       .  S
C1173      C1179   1.544       .  S
C1173      C1177   1.540       .  S
C1173      C1845   1.548       .  S
C1174      H1181   1.081       .  S
C1174      C1175   1.370       .  D
C1175      C1176   1.535       .  S
C1175      C1781   1.489       .  S
C1176      C1180   1.543       .  S
C1176      C1178   1.533       .  S
C1176      H1182   1.111       .  S
C1177      H1183   1.086       .  S
C1177      C1178   1.360       .  D
C1178      C1765   1.486       .  S
C1179      H1184   1.079       .  S
C1179      C1180   1.369       .  D
C1180      C1909   1.505       .  S
C1185      C1186   1.552       .  S
C1185      C1191   1.540       .  S
C1185      C1189   1.555       .  S
C1185      C1746   1.557       .  S
C1186      H1193   1.083       .  S
C1186      C1187   1.361       .  D
C1187      C1188   1.534       .  S
C1187      C1717   1.485       .  S
C1188      C1192   1.535       .  S
C1188      C1190   1.545       .  S
C1188      H1194   1.111       .  S
C1189      H1195   1.080       .  S
C1189      C1190   1.378       .  D
C1190      C1730   1.507       .  S
C1191      H1196   1.086       .  S
C1191      C1192   1.362       .  D
C1192      C1829   1.492       .  S
C1197      C1198   1.552       .  S
C1197      C1203   1.547       .  S
C1197      C1201   1.552       .  S
C1197      C1749   1.563       .  S
C1198      H1205   1.083       .  S
C1198      C1199   1.360       .  D
C1199      C1200   1.536       .  S
C1199      C1941   1.483       .  S
C1200      C1204   1.540       .  S
C1200      C1202   1.543       .  S
C1200      H1206   1.110       .  S
C1201      H1207   1.079       .  S
C1201      C1202   1.376       .  D
C1202      C1970   1.504       .  S
C1203      H1208   1.086       .  S
C1203      C1204   1.369       .  D
C1204      C1861   1.510       .  S
In1209     O1211   2.239       .  S
In1209     O1212   2.248       .  S
In1209     O1220   2.266       .  S
In1209     O1214   2.217       .  S
In1209     O1216   2.283       .  S
In1209     O1217   2.226       .  S
In1209     O1218   2.216       .  S
In1209     O1221   2.254       .  S
C1210      O1216   1.261       .  A
C1210      O1218   1.254       .  A
C1210      C1223   1.463   1_565  S
O1211      C1219   1.258       .  A
O1212      C1219   1.259       .  A
C1213      O1220   1.262       .  A
C1213      O1214   1.254       .  A
C1215      O1217   1.261       .  A
C1215      O1221   1.263       .  A
C1215      C1236   1.463       .  S
C1219      C1271   1.456       .  S
In1222     O1225   2.239       .  S
In1222     O1233   2.243       .  S
In1222     O1230   2.225       .  S
In1222     O1231   2.272       .  S
In1222     O1234   2.281       .  S
C1223      O1229   1.256       .  A
O1224      C1232   1.258       .  A
C1226      O1227   1.265       .  A
C1226      C1698   1.494       .  S
C1228      O1230   1.257       .  A
C1228      O1234   1.265       .  A
C1228      C1249   1.469       .  S
In1235     O1237   2.245       .  S
In1235     O1238   2.250       .  S
In1235     O1246   2.209       .  S
In1235     O1240   2.286       .  S
In1235     O1242   2.267       .  S
In1235     O1243   2.272       .  S
In1235     O1244   2.233       .  S
In1235     O1247   2.221       .  S
C1236      O1242   1.261       .  A
C1236      O1244   1.256       .  A
O1237      C1245   1.258       .  A
O1238      C1245   1.259       .  A
C1239      O1246   1.255       .  A
C1239      O1240   1.264       .  A
C1239      C1877   1.483       .  S
C1241      O1243   1.264       .  A
C1241      O1247   1.259       .  A
C1241      C1254   1.466   1_565  S
C1245      C1297   1.460       .  S
In1248     O1250   2.274       .  S
In1248     O1251   2.229       .  S
In1248     O1259   2.215       .  S
In1248     O1253   2.278       .  S
In1248     O1255   2.284       .  S
In1248     O1256   2.286       .  S
In1248     O1257   2.229       .  S
In1248     O1260   2.231       .  S
C1249      O1255   1.262       .  A
C1249      O1257   1.257       .  A
O1250      C1258   1.258       .  A
O1251      C1258   1.252       .  A
C1252      O1259   1.258       .  A
C1252      O1253   1.268       .  A
C1252      C1685   1.486       .  S
C1254      O1256   1.261       .  A
C1254      O1260   1.254       .  A
C1258      C1310   1.457       .  S
In1261     O1263   2.254       .  S
In1261     O1264   2.244       .  S
In1261     O1266   2.236       .  S
In1261     O1268   2.267       .  S
In1261     O1269   2.210       .  S
In1261     O1270   2.248       .  S
In1261     O1273   2.287       .  S
C1262      O1268   1.262       .  A
C1262      O1270   1.258       .  A
C1262      C1293   1.469       .  S
O1263      C1271   1.257       .  A
O1264      C1271   1.257       .  A
C1265      O1266   1.256       .  A
C1267      O1269   1.258       .  A
C1267      O1273   1.265       .  A
C1267      C1280   1.466   1_565  S
In1274     O1276   2.244       .  S
In1274     O1277   2.238   1_556  S
In1274     O1281   2.256       .  S
In1274     O1283   2.222       .  S
In1274     O1286   2.271   1_556  S
C1275      O1281   1.262       .  A
C1275      O1283   1.261       .  A
C1275      C1306   1.460       .  S
O1276      C1284   1.259       .  A
O1277      C1284   1.257   1_554  A
C1278      O1285   1.254       .  A
C1278      O1279   1.262       .  A
C1278      C1666   1.482       .  S
C1280      O1282   1.255       .  A
In1287     O1289   2.252       .  S
In1287     O1290   2.248       .  S
In1287     O1298   2.206       .  S
In1287     O1292   2.291       .  S
In1287     O1294   2.276       .  S
In1287     O1295   2.258       .  S
In1287     O1296   2.226       .  S
In1287     O1299   2.267       .  S
C1288      O1294   1.264       .  A
C1288      O1296   1.258       .  A
C1288      C1301   1.467   1_565  S
O1289      C1297   1.259       .  A
O1290      C1297   1.259       .  A
C1291      O1298   1.256       .  A
C1291      O1292   1.266       .  A
C1291      C1762   1.482       .  S
C1293      O1295   1.258       .  A
C1293      O1299   1.257       .  A
In1300     O1302   2.224       .  S
In1300     O1303   2.253       .  S
In1300     O1311   2.215       .  S
In1300     O1305   2.256       .  S
In1300     O1307   2.224       .  S
In1300     O1308   2.221       .  S
In1300     O1309   2.273       .  S
In1300     O1312   2.261       .  S
C1301      O1307   1.258       .  A
C1301      O1309   1.265       .  A
O1302      C1310   1.260       .  A
O1303      C1310   1.261       .  A
C1304      O1311   1.255       .  A
C1304      O1305   1.263       .  A
C1304      C1650   1.466       .  S
C1306      O1308   1.256       .  A
C1306      O1312   1.264       .  A
In1313     O1315   2.249       .  S
In1313     O1316   2.247       .  S
In1313     O1324   2.207       .  S
In1313     O1318   2.280       .  S
In1313     O1320   2.280       .  S
In1313     O1321   2.225       .  S
In1313     O1322   2.214       .  S
In1313     O1325   2.265       .  S
C1314      O1320   1.264       .  A
C1314      O1322   1.257       .  A
C1314      C1327   1.466   1_655  S
O1315      C1323   1.258       .  A
O1316      C1323   1.258       .  A
C1317      O1324   1.253       .  A
C1317      O1318   1.267       .  A
C1317      C1637   1.493       .  S
C1319      O1321   1.258       .  A
C1319      O1325   1.261       .  A
C1319      C1340   1.460       .  S
C1323      C1375   1.458       .  S
In1326     O1328   2.240       .  S
In1326     O1329   2.267       .  S
In1326     O1337   2.233       .  S
In1326     O1331   2.278       .  S
In1326     O1333   2.214       .  S
In1326     O1334   2.220       .  S
In1326     O1335   2.285       .  S
In1326     O1338   2.295       .  S
C1327      O1333   1.258       .  A
C1327      O1335   1.265       .  A
O1328      C1336   1.255       .  A
O1329      C1336   1.259       .  A
C1330      O1337   1.256       .  A
C1330      O1331   1.262       .  A
C1330      C1733   1.481       .  S
C1332      O1334   1.257       .  A
C1332      O1338   1.264       .  A
C1332      C1353   1.472       .  S
C1336      C1388   1.461       .  S
In1339     O1341   2.238       .  S
In1339     O1342   2.251   1_556  S
In1339     O1346   2.267       .  S
In1339     O1348   2.220       .  S
In1339     O1351   2.292   1_556  S
C1340      O1346   1.262       .  A
C1340      O1348   1.256       .  A
O1341      C1349   1.259       .  A
O1342      C1349   1.261   1_554  A
C1343      O1350   1.253       .  A
C1343      O1344   1.265       .  A
C1343      C1618   1.478       .  S
C1345      O1347   1.257       .  A
C1345      C1358   1.472   1_655  S
C1349      C1401   1.460       .  S
In1352     O1354   2.255       .  S
In1352     O1355   2.235       .  S
In1352     O1357   2.298       .  S
In1352     O1359   2.297       .  S
In1352     O1360   2.221       .  S
In1352     O1361   2.214       .  S
In1352     O1364   2.292       .  S
C1353      O1359   1.267       .  A
C1353      O1361   1.257       .  A
O1354      C1362   1.258       .  A
O1355      C1362   1.258       .  A
C1356      O1357   1.264       .  A
C1358      O1360   1.258       .  A
C1358      O1364   1.265       .  A
C1362      C1414   1.457       .  S
In1365     O1367   2.241       .  S
In1365     O1368   2.249       .  S
In1365     O1376   2.200       .  S
In1365     O1370   2.286       .  S
In1365     O1372   2.230       .  S
In1365     O1373   2.218       .  S
In1365     O1374   2.265       .  S
In1365     O1377   2.283       .  S
C1366      O1372   1.256       .  A
C1366      O1374   1.261       .  A
C1366      C1397   1.463       .  S
O1367      C1375   1.257       .  A
O1368      C1375   1.260       .  A
C1369      O1376   1.255       .  A
C1369      O1370   1.267       .  A
C1369      C1605   1.480       .  S
C1371      O1373   1.257       .  A
C1371      O1377   1.264       .  A
C1371      C1384   1.467   1_655  S
In1378     O1380   2.268       .  S
In1378     O1381   2.242       .  S
In1378     O1389   2.277       .  S
In1378     O1383   2.212       .  S
In1378     O1385   2.267       .  S
In1378     O1386   2.216       .  S
In1378     O1387   2.207       .  S
In1378     O1390   2.276       .  S
C1379      O1385   1.263       .  A
C1379      O1387   1.256       .  A
C1379      C1410   1.458       .  S
O1380      C1388   1.258       .  A
O1381      C1388   1.256       .  A
C1382      O1389   1.262       .  A
C1382      O1383   1.254       .  A
C1382      C1813   1.476       .  S
C1384      O1386   1.259       .  A
C1384      O1390   1.265       .  A
In1391     O1394   2.250       .  S
In1391     O1402   2.216   1_556  S
In1391     O1399   2.257       .  S
In1391     O1400   2.221       .  S
In1391     O1403   2.229       .  S
C1392      O1398   1.261   1_455  A
C1392      C1405   1.463       .  S
O1394      C1401   1.258       .  A
C1395      O1396   1.261       .  A
C1395      C1586   1.472       .  S
C1397      O1399   1.262       .  A
C1397      O1403   1.261       .  A
In1404     O1406   2.232       .  S
In1404     O1407   2.259       .  S
In1404     O1415   2.230       .  S
In1404     O1409   2.261       .  S
In1404     O1411   2.223       .  S
In1404     O1412   2.208       .  S
In1404     O1413   2.264       .  S
In1404     O1416   2.269       .  S
C1405      O1411   1.258       .  A
C1405      O1413   1.262       .  A
O1406      C1414   1.256       .  A
O1407      C1414   1.260       .  A
C1408      O1415   1.254       .  A
C1408      O1409   1.263       .  A
C1410      O1412   1.257       .  A
C1410      O1416   1.263       .  A
C1417      C1418   1.546       .  S
C1417      C1423   1.544       .  S
C1417      C1421   1.548       .  S
C1417      C1570   1.548       .  S
C1418      H1425   1.079       .  S
C1418      C1419   1.372       .  D
C1419      C1420   1.543       .  S
C1419      C1669   1.505       .  S
C1420      C1424   1.543       .  S
C1420      C1422   1.534       .  S
C1420      H1426   1.110       .  S
C1421      H1427   1.084       .  S
C1421      C1422   1.362       .  D
C1422      C1653   1.482       .  S
C1423      H1428   1.084       .  S
C1423      C1424   1.362       .  D
C1424      C1554   1.493       .  S
C1429      C1430   1.548       .  S
C1429      C1435   1.550       .  S
C1429      C1433   1.538       .  S
C1429      C1573   1.548       .  S
C1430      H1437   1.078       .  S
C1430      C1431   1.373       .  D
C1431      C1432   1.540       .  S
C1431      C1957   1.492       .  S
C1432      C1436   1.537       .  S
C1432      C1434   1.535       .  S
C1432      H1438   1.111       .  S
C1433      H1439   1.087       .  S
C1433      C1434   1.357       .  D
C1434      C1989   1.484       .  S
C1435      H1440   1.086       .  S
C1435      C1436   1.366       .  D
C1436      C1538   1.490       .  S
C1441      C1442   1.541       .  S
C1441      C1447   1.553       .  S
C1441      C1445   1.536       .  S
C1441      C1522   1.547       .  S
C1442      H1449   1.085       .  S
C1442      C1443   1.365       .  D
C1443      C1444   1.541       .  S
C1443      C1602   1.483       .  S
C1444      C1448   1.539       .  S
C1444      C1446   1.547       .  S
C1444      H1450   1.108       .  S
C1445      H1451   1.079       .  S
C1445      C1446   1.367       .  D
C1446      C1589   1.500       .  S
C1447      H1452   1.084       .  S
C1447      C1448   1.365       .  D
C1448      C1506   1.501       .  S
C1453      C1454   1.538       .  S
C1453      C1459   1.542       .  S
C1453      C1457   1.555       .  S
C1453      C1525   1.547       .  S
C1454      H1461   1.084       .  S
C1454      C1455   1.362       .  D
C1455      C1456   1.540       .  S
C1455      C2053   1.489       .  S
C1456      C1460   1.540       .  S
C1456      C1458   1.533       .  S
C1456      H1462   1.108       .  S
C1457      H1463   1.083       .  S
C1457      C1458   1.367       .  D
C1458      C2021   1.485       .  S
C1459      H1464   1.086       .  S
C1459      C1460   1.368       .  D
C1460      C1541   1.495       .  S
C1465      C1466   1.538       .  S
C1465      C1471   1.553       .  S
C1465      C1469   1.558       .  S
C1465      C1490   1.556       .  S
C1466      H1473   1.086       .  S
C1466      C1467   1.359       .  D
C1467      C1468   1.531       .  S
C1467      C1621   1.480       .  S
C1468      C1472   1.535       .  S
C1468      C1470   1.538       .  S
C1468      H1474   1.111       .  S
C1469      H1475   1.077       .  S
C1469      C1470   1.375       .  D
C1470      C1634   1.503       .  S
C1471      H1476   1.082       .  S
C1471      C1472   1.366       .  D
C1472      C1509   1.493       .  S
C1477      C1478   1.554       .  S
C1477      C1483   1.544       .  S
C1477      C1481   1.544       .  S
C1477      C1493   1.551       .  S
C1478      H1485   1.079       .  S
C1478      C1479   1.369       .  D
C1479      C1480   1.550       .  S
C1479      C1682   1.503       .  S
C1480      C1484   1.544       .  S
C1480      C1482   1.541       .  S
C1480      H1486   1.111       .  S
C1481      H1487   1.086       .  S
C1481      C1482   1.364       .  D
C1482      C1701   1.500       .  S
C1483      H1488   1.084       .  S
C1483      C1484   1.365       .  D
C1484      C1557   1.498       .  S
C1489      C1490   1.414       .  A
C1489      C1494   1.412       .  A
C1489      H1496   1.081       .  S
C1490      C1491   1.430       .  A
C1491      C1498   1.520       .  S
C1491      C1492   1.412       .  A
C1492      C1493   1.409       .  A
C1492      H1497   1.080       .  S
C1493      C1494   1.429       .  A
C1494      C1495   1.524       .  S
C1495      F1499   1.385       .  S
C1495      F1500   1.383       .  S
C1495      F1501   1.377       .  S
C1498      F1502   1.380       .  S
C1498      F1503   1.378       .  S
C1498      F1504   1.385       .  S
C1505      C1506   1.406       .  A
C1505      C1510   1.409       .  A
C1505      H1512   1.083       .  S
C1506      C1507   1.421       .  A
C1507      C1514   1.518       .  S
C1507      C1508   1.412       .  A
C1508      C1509   1.403       .  A
C1508      H1513   1.082       .  S
C1509      C1510   1.420       .  A
C1510      C1511   1.523       .  S
C1511      F1515   1.385       .  S
C1511      F1516   1.381       .  S
C1511      F1517   1.380       .  S
C1514      F1518   1.380       .  S
C1514      F1519   1.380       .  S
C1514      F1520   1.385       .  S
C1521      C1522   1.408       .  A
C1521      C1526   1.406       .  A
C1521      H1528   1.080       .  S
C1522      C1523   1.428       .  A
C1523      C1530   1.525       .  S
C1523      C1524   1.412       .  A
C1524      C1525   1.413       .  A
C1524      H1529   1.078       .  S
C1525      C1526   1.432       .  A
C1526      C1527   1.528       .  S
C1527      F1531   1.385       .  S
C1527      F1532   1.373       .  S
C1527      F1533   1.383       .  S
C1530      F1534   1.385       .  S
C1530      F1535   1.377       .  S
C1530      F1536   1.383       .  S
C1537      C1538   1.407       .  A
C1537      C1542   1.412       .  A
C1537      H1544   1.083       .  S
C1538      C1539   1.423       .  A
C1539      C1546   1.522       .  S
C1539      C1540   1.403       .  A
C1540      C1541   1.401       .  A
C1540      H1545   1.082       .  S
C1541      C1542   1.418       .  A
C1542      C1543   1.517       .  S
C1543      F1547   1.386       .  S
C1543      F1548   1.380       .  S
C1543      F1549   1.382       .  S
C1546      F1550   1.374       .  S
C1546      F1551   1.382       .  S
C1546      F1552   1.384       .  S
C1553      C1554   1.401       .  A
C1553      C1558   1.409       .  A
C1553      H1560   1.083       .  S
C1554      C1555   1.416       .  A
C1555      C1562   1.514       .  S
C1555      C1556   1.414       .  A
C1556      C1557   1.406       .  A
C1556      H1561   1.083       .  S
C1557      C1558   1.416       .  A
C1558      C1559   1.511       .  S
C1559      F1563   1.384       .  S
C1559      F1564   1.380       .  S
C1559      F1565   1.380       .  S
C1562      F1566   1.381       .  S
C1562      F1567   1.383       .  S
C1562      F1568   1.384       .  S
C1569      C1570   1.412       .  A
C1569      C1574   1.413       .  A
C1569      H1576   1.079       .  S
C1570      C1571   1.425       .  A
C1571      C1578   1.526       .  S
C1571      C1572   1.407       .  A
C1572      C1573   1.414       .  A
C1572      H1577   1.081       .  S
C1573      C1574   1.430       .  A
C1574      C1575   1.525       .  S
C1575      F1579   1.385       .  S
C1575      F1580   1.380       .  S
C1575      F1581   1.382       .  S
C1578      F1582   1.378       .  S
C1578      F1583   1.383       .  S
C1578      F1584   1.385       .  S
C1585      C1586   1.400       .  A
C1585      C1590   1.411       .  A
C1585      H1592   1.083       .  S
C1586      C1587   1.411       .  A
C1587      C1594   1.519       .  S
C1587      C1588   1.400       .  A
C1588      C1589   1.406       .  A
C1588      H1593   1.082       .  S
C1589      C1590   1.430       .  A
C1590      C1591   1.522       .  S
C1591      F1595   1.385       .  S
C1591      F1596   1.382       .  S
C1591      F1597   1.381       .  S
C1594      F1598   1.383       .  S
C1594      F1599   1.382       .  S
C1594      F1600   1.384       .  S
C1601      C1602   1.405       .  A
C1601      C1606   1.411       .  A
C1601      H1608   1.083       .  S
C1602      C1603   1.411       .  A
C1603      C1610   1.513       .  S
C1603      C1604   1.402       .  A
C1604      C1605   1.405       .  A
C1604      H1609   1.083       .  S
C1605      C1606   1.416       .  A
C1606      C1607   1.517       .  S
C1607      F1611   1.384       .  S
C1607      F1612   1.383       .  S
C1607      F1613   1.383       .  S
C1610      F1614   1.377       .  S
C1610      F1615   1.383       .  S
C1610      F1616   1.385       .  S
C1617      C1618   1.402       .  A
C1617      C1622   1.408       .  A
C1617      H1624   1.083       .  S
C1618      C1619   1.421       .  A
C1619      C1620   1.404       .  A
C1620      C1621   1.398       .  A
C1620      H1625   1.084       .  S
C1621      C1622   1.415       .  A
C1622      C1623   1.512       .  S
C1623      F1627   1.384       .  S
C1623      F1628   1.382       .  S
C1623      F1629   1.381       .  S
C1626      F1630   1.384   1_554  S
C1626      F1631   1.382       .  S
C1626      F1632   1.384       .  S
C1633      C1634   1.404       .  A
C1633      C1638   1.404       .  A
C1633      H1640   1.082       .  S
C1634      C1635   1.422       .  A
C1635      C1642   1.515       .  S
C1635      C1636   1.413       .  A
C1636      C1637   1.405       .  A
C1636      H1641   1.082       .  S
C1637      C1638   1.424       .  A
C1638      C1639   1.524       .  S
C1639      F1643   1.384       .  S
C1639      F1644   1.383       .  S
C1639      F1645   1.384       .  S
C1642      F1646   1.377       .  S
C1642      F1647   1.381       .  S
C1642      F1648   1.385       .  S
C1649      C1650   1.396       .  A
C1649      C1654   1.402       .  A
C1649      H1656   1.084       .  S
C1650      C1651   1.414       .  A
C1651      C1658   1.514       .  S
C1651      C1652   1.402       .  A
C1652      C1653   1.401       .  A
C1652      H1657   1.084       .  S
C1653      C1654   1.419       .  A
C1654      C1655   1.512       .  S
C1655      F1659   1.386       .  S
C1655      F1660   1.380       .  S
C1655      F1661   1.378       .  S
C1658      F1662   1.382       .  S
C1658      F1663   1.384       .  S
C1658      F1664   1.385       .  S
C1665      C1666   1.401       .  A
C1665      C1670   1.415       .  A
C1665      H1672   1.082       .  S
C1666      C1667   1.418       .  A
C1667      C1674   1.524       .  S
C1667      C1668   1.401       .  A
C1668      C1669   1.405       .  A
C1668      H1673   1.079       .  S
C1669      C1670   1.428       .  A
C1670      C1671   1.519       .  S
C1671      F1675   1.381       .  S
C1671      F1676   1.380       .  S
C1671      F1677   1.385       .  S
C1674      F1678   1.384       .  S
C1674      F1679   1.382       .  S
C1674      F1680   1.385       .  S
C1681      C1682   1.400       .  A
C1681      C1686   1.399       .  A
C1681      H1688   1.078       .  S
C1682      C1683   1.428       .  A
C1683      C1690   1.520       .  S
C1683      C1684   1.417       .  A
C1684      C1685   1.403       .  A
C1684      H1689   1.083       .  S
C1685      C1686   1.420       .  A
C1686      C1687   1.522       .  S
C1687      F1691   1.385       .  S
C1687      F1692   1.382       .  S
C1687      F1693   1.382       .  S
C1690      F1694   1.381       .  S
C1690      F1695   1.378       .  S
C1690      F1696   1.385       .  S
C1697      C1698   1.403       .  A
C1697      C1702   1.408       .  A
C1697      H1704   1.083       .  S
C1698      C1699   1.422       .  A
C1699      C1706   1.517       .  S
C1699      C1700   1.414       .  A
C1700      C1701   1.403       .  A
C1700      H1705   1.083       .  S
C1701      C1702   1.417       .  A
C1702      C1703   1.509       .  S
C1703      F1707   1.384       .  S
C1703      F1708   1.377       .  S
C1703      F1709   1.381       .  S
C1706      F1710   1.382       .  S
C1706      F1712   1.385       .  S
C1713      C1714   1.407   1_556  A
C1713      C1718   1.412       .  A
C1713      H1720   1.083       .  S
C1714      C1715   1.427   1_554  A
C1715      C1722   1.522   1_556  S
C1715      C1716   1.404       .  A
C1716      C1717   1.396       .  A
C1716      H1721   1.083       .  S
C1717      C1718   1.418       .  A
C1718      C1719   1.519       .  S
C1719      F1723   1.384       .  S
C1719      F1724   1.382       .  S
C1719      F1725   1.382       .  S
C1722      F1727   1.383       .  S
C1722      F1728   1.385   1_554  S
C1729      C1730   1.411       .  A
C1729      C1734   1.409       .  A
C1729      H1736   1.081       .  S
C1730      C1731   1.425       .  A
C1731      C1738   1.516       .  S
C1731      C1732   1.411       .  A
C1732      C1733   1.400       .  A
C1732      H1737   1.083       .  S
C1733      C1734   1.414       .  A
C1734      C1735   1.520       .  S
C1735      F1739   1.385       .  S
C1735      F1740   1.382       .  S
C1735      F1741   1.384       .  S
C1738      F1742   1.381       .  S
C1738      F1743   1.378       .  S
C1738      F1744   1.385       .  S
C1745      C1746   1.411       .  A
C1745      C1750   1.412       .  A
C1745      H1752   1.080       .  S
C1746      C1747   1.425       .  A
C1747      C1754   1.521       .  S
C1747      C1748   1.414       .  A
C1748      C1749   1.416       .  A
C1748      H1753   1.079       .  S
C1749      C1750   1.431       .  A
C1750      C1751   1.521       .  S
C1751      F1756   1.377       .  S
C1751      F1757   1.380       .  S
C1754      F1758   1.378       .  S
C1754      F1759   1.381       .  S
C1754      F1760   1.386       .  S
C1761      C1762   1.402       .  A
C1761      C1766   1.400       .  A
C1761      H1768   1.083       .  S
C1762      C1763   1.417       .  A
C1763      C1770   1.516       .  S
C1763      C1764   1.414       .  A
C1764      C1765   1.407       .  A
C1764      H1769   1.083       .  S
C1765      C1766   1.412       .  A
C1766      C1767   1.514       .  S
C1767      F1771   1.385       .  S
C1767      F1772   1.381       .  S
C1767      F1773   1.380       .  S
C1770      F1774   1.382       .  S
C1770      F1775   1.384       .  S
C1770      F1776   1.385       .  S
C1777      C1778   1.406       .  A
C1777      C1782   1.412       .  A
C1778      C1779   1.418       .  A
C1779      C1786   1.520       .  S
C1779      C1780   1.405       .  A
C1780      C1781   1.401       .  A
C1780      H1785   1.079       .  S
C1781      C1782   1.419       .  A
C1782      C1783   1.520       .  S
C1783      F1788   1.382       .  S
C1783      F1789   1.381       .  S
C1786      F1790   1.384       .  S
C1786      F1791   1.382       .  S
C1786      F1792   1.384       .  S
C1793      C1794   1.395       .  A
C1793      C1798   1.408   1_556  A
C1793      H1800   1.080       .  S
C1794      C1795   1.412       .  A
C1795      C1802   1.513       .  S
C1796      H1801   1.083       .  S
C1797      C1798   1.427       .  A
C1798      C1799   1.519       .  S
C1799      F1803   1.386       .  S
C1799      F1804   1.383       .  S
C1799      F1805   1.383       .  S
C1802      F1806   1.378       .  S
C1802      F1807   1.382       .  S
C1809      C1810   1.406       .  A
C1809      C1814   1.396       .  A
C1809      H1816   1.068       .  S
C1810      C1811   1.432       .  A
C1811      C1818   1.520       .  S
C1811      C1812   1.417       .  A
C1812      C1813   1.402       .  A
C1812      H1817   1.082       .  S
C1813      C1814   1.412       .  A
C1814      C1815   1.524       .  S
C1815      F1819   1.385       .  S
C1815      F1820   1.382       .  S
C1815      F1821   1.384       .  S
C1818      F1822   1.382       .  S
C1818      F1823   1.380       .  S
C1818      F1824   1.385       .  S
C1825      C1826   1.403       .  A
C1825      C1830   1.410       .  A
C1825      H1832   1.085       .  S
C1826      C1827   1.418       .  A
C1827      C1834   1.515       .  S
C1827      C1828   1.410       .  A
C1828      C1829   1.403       .  A
C1828      H1833   1.085       .  S
C1829      C1830   1.415       .  A
C1830      C1831   1.515       .  S
C1831      F1835   1.385       .  S
C1831      F1836   1.382       .  S
C1831      F1837   1.382       .  S
C1834      F1838   1.382       .  S
C1834      F1839   1.385       .  S
C1834      F1840   1.379       .  S
C1841      C1842   1.403       .  A
C1841      C1846   1.407       .  A
C1841      H1848   1.084       .  S
C1842      C1843   1.425       .  A
C1843      C1850   1.519       .  S
C1843      C1844   1.408       .  A
C1844      C1845   1.410       .  A
C1844      H1849   1.080       .  S
C1845      C1846   1.435       .  A
C1846      C1847   1.520       .  S
C1847      F1851   1.385       .  S
C1847      F1852   1.382       .  S
C1847      F1853   1.370       .  S
C1850      F1854   1.382       .  S
C1850      F1855   1.379       .  S
C1850      F1856   1.385       .  S
C1857      C1858   1.403       .  A
C1857      C1862   1.416       .  A
C1857      H1864   1.082       .  S
C1858      C1859   1.420       .  A
C1859      C1866   1.518       .  S
C1859      C1860   1.414       .  A
C1860      C1861   1.406       .  A
C1860      H1865   1.083       .  S
C1861      C1862   1.425       .  A
C1862      C1863   1.516       .  S
C1863      F1867   1.385       .  S
C1863      F1868   1.379       .  S
C1863      F1869   1.380       .  S
C1866      F1870   1.382       .  S
C1866      F1871   1.382       .  S
C1866      F1872   1.384       .  S
C1873      C1874   1.405       .  A
C1873      C1878   1.411       .  A
C1873      H1880   1.084       .  S
C1874      C1875   1.409       .  A
C1875      C1882   1.516       .  S
C1875      C1876   1.402       .  A
C1876      C1877   1.406       .  A
C1876      H1881   1.083       .  S
C1877      C1878   1.418       .  A
C1878      C1879   1.518       .  S
C1879      F1883   1.385       .  S
C1879      F1884   1.383       .  S
C1879      F1885   1.382       .  S
C1882      F1886   1.380       .  S
C1882      F1887   1.383       .  S
C1882      F1888   1.385       .  S
C1889      C1890   1.406       .  A
C1889      C1894   1.404       .  A
C1889      H1896   1.081       .  S
C1890      C1891   1.424       .  A
C1892      H1897   1.083       .  S
C1893      C1894   1.415       .  A
C1894      C1895   1.519       .  S
C1895      F1899   1.384       .  S
C1895      F1900   1.384       .  S
C1895      F1901   1.383       .  S
C1898      F1903   1.382       .  S
C1898      F1904   1.385       .  S
C1905      C1906   1.404       .  A
C1905      C1910   1.409       .  A
C1905      H1912   1.082       .  S
C1906      C1907   1.417       .  A
C1907      C1914   1.517       .  S
C1907      C1908   1.405       .  A
C1908      C1909   1.408       .  A
C1908      H1913   1.083       .  S
C1909      C1910   1.426       .  A
C1910      C1911   1.519       .  S
C1911      F1915   1.384       .  S
C1911      F1916   1.376       .  S
C1911      F1917   1.379       .  S
C1914      F1918   1.382       .  S
C1914      F1919   1.378       .  S
C1914      F1920   1.385       .  S
C1921      C1922   1.407       .  A
C1921      C1926   1.404       .  A
C1921      H1928   1.083       .  S
C1922      C1923   1.424       .  A
C1923      C1930   1.522       .  S
C1923      C1924   1.408       .  A
C1924      C1925   1.411       .  A
C1924      H1929   1.080       .  S
C1925      C1926   1.431       .  A
C1926      C1927   1.529       .  S
C1927      F1931   1.384       .  S
C1927      F1932   1.376       .  S
C1927      F1933   1.383       .  S
C1930      F1934   1.380       .  S
C1930      F1935   1.383       .  S
C1930      F1936   1.384       .  S
C1937      C1938   1.408       .  A
C1937      C1942   1.414       .  A
C1937      H1944   1.083       .  S
C1938      C1939   1.428       .  A
C1939      C1946   1.519       .  S
C1939      C1940   1.404       .  A
C1940      C1941   1.393       .  A
C1940      H1945   1.083       .  S
C1941      C1942   1.418       .  A
C1942      C1943   1.520       .  S
C1943      F1947   1.382       .  S
C1943      F1948   1.379       .  S
C1943      F1949   1.385       .  S
C1946      F1950   1.383       .  S
C1946      F1951   1.383       .  S
C1946      F1952   1.385       .  S
C1953      C1954   1.408       .  A
C1953      C1958   1.412       .  A
C1953      H1960   1.083       .  S
C1954      C1955   1.419       .  A
C1955      C1962   1.519       .  S
C1955      C1956   1.410       .  A
C1956      C1957   1.403       .  A
C1956      H1961   1.083       .  S
C1957      C1958   1.420       .  A
C1958      C1959   1.521       .  S
C1959      F1963   1.384       .  S
C1959      F1964   1.382       .  S
C1959      F1965   1.381       .  S
C1962      F1966   1.384       .  S
C1962      F1967   1.383       .  S
C1962      F1968   1.385       .  S
C1969      C1970   1.410       .  A
C1969      C1974   1.407       .  A
C1969      H1976   1.080       .  S
C1970      C1971   1.424       .  A
C1971      C1978   1.515   1_556  S
C1972      H1977   1.083       .  S
C1973      C1974   1.413   1_554  A
C1974      C1975   1.520       .  S
C1975      F1979   1.385       .  S
C1975      F1981   1.383       .  S
C1978      F1983   1.376       .  S
C1985      C1986   1.404       .  A
C1985      C1990   1.400       .  A
C1985      H1992   1.083       .  S
C1986      C1987   1.416       .  A
C1987      C1994   1.514       .  S
C1987      C1988   1.412       .  A
C1988      C1989   1.404       .  A
C1988      H1993   1.083       .  S
C1989      C1990   1.412       .  A
C1990      C1991   1.511       .  S
C1991      F1996   1.382       .  S
C1991      F1997   1.379       .  S
C1994      F1998   1.384       .  S
C1994      F1999   1.383       .  S
C1994      F2000   1.384       .  S
C2001      C2002   1.402       .  A
C2001      C2006   1.414       .  A
C2001      H2008   1.083       .  S
C2002      C2003   1.418       .  A
C2003      C2010   1.521       .  S
C2003      C2004   1.395       .  A
C2004      C2005   1.398       .  A
C2004      H2009   1.082       .  S
C2005      C2006   1.427       .  A
C2006      C2007   1.519       .  S
C2007      F2011   1.385       .  S
C2007      F2012   1.380       .  S
C2007      F2013   1.382       .  S
C2010      F2014   1.383       .  S
C2010      F2015   1.383       .  S
C2010      F2016   1.384       .  S
C2017      C2018   1.397       .  A
C2017      C2022   1.402       .  A
C2017      H2024   1.084       .  S
C2018      C2019   1.416       .  A
C2019      C2026   1.516       .  S
C2019      C2020   1.406       .  A
C2020      C2021   1.402       .  A
C2020      H2025   1.083       .  S
C2021      C2022   1.418       .  A
C2022      C2023   1.512       .  S
C2023      F2027   1.380       .  S
C2023      F2028   1.378       .  S
C2023      F2029   1.385       .  S
C2026      F2030   1.382       .  S
C2026      F2031   1.383       .  S
C2026      F2032   1.385       .  S
C2033      C2034   1.407   1_556  A
C2033      C2038   1.406       .  A
C2033      H2040   1.083       .  S
C2035      C2042   1.518       .  S
C2036      C2037   1.397       .  A
C2036      H2041   1.084       .  S
C2037      C2038   1.411       .  A
C2038      C2039   1.515       .  S
C2039      F2043   1.385       .  S
C2039      F2044   1.383       .  S
C2039      F2045   1.381       .  S
C2042      F2046   1.384       .  S
C2042      F2047   1.383       .  S
C2042      F2048   1.385       .  S
C2049      C2050   1.401       .  A
C2049      C2054   1.408       .  A
C2049      H2056   1.083       .  S
C2050      C2051   1.421       .  A
C2051      C2058   1.524       .  S
C2051      C2052   1.402       .  A
C2052      C2053   1.403       .  A
C2052      H2057   1.084       .  S
C2053      C2054   1.424       .  A
C2054      C2055   1.522       .  S
C2055      F2059   1.385       .  S
C2055      F2060   1.382       .  S
C2055      F2061   1.378       .  S
C2058      F2063   1.383       .  S
C2058      F2064   1.384       .  S
