geometry optimzed in LAMMPS
_audit_creation_date              2020-11-30 
_audit_creation_method            'lammps2cif' 
_symmetry_space_group_name_H-M    'P1' 
_symmetry_Int_Tables_number       1 
_symmetry_cell_setting            triclinic 
loop_ 
_symmetry_equiv_pos_as_xyz 
  x,y,z 
_cell_length_a                    37.07324862 
_cell_length_b                    30.546450375857162 
_cell_length_c                    30.568812099897343 
_cell_angle_alpha                 80.80592710356918 
_cell_angle_beta                  80.19418638016498 
_cell_angle_gamma                 89.86991834697652 
loop_ 
_atom_site_label 
_atom_site_type_symbol 
_atom_site_fract_x 
_atom_site_fract_y 
_atom_site_fract_z 
_atom_site_charge 
O1          O  0.45524472  0.45568461  0.04095082    -0.74600
O2          O  0.03752192  0.03498907  0.03738600    -0.74600
O3          O  0.46394253  0.04426145  0.04059855    -0.74700
O4          O  0.02801100  0.44600105  0.04096484    -0.74700
O5          O  0.03706573  0.45679851  0.46954267    -0.74700
O6          O  0.47244469  0.05628586  0.46915712    -0.74600
O7          O  0.04530116  0.04573102  0.46591881    -0.74600
O8          O  0.46421261  0.46683758  0.47016210    -0.74700
Ni9        Ni  0.49507370  0.49475610  0.04225847     1.25400
Ni10       Ni  0.00465426  0.00759795  0.46508875     1.25400
C11         C  0.44585603  0.44972013  0.50835782     0.87600
C12         C  0.05489528  0.05191803  0.50278144     0.87500
C13         C  0.45727961  0.06579938  0.00339337     0.87500
C14         C  0.04413327  0.43472195  0.00393880     0.87700
O15         O  0.46104755  0.45129018  0.29087579    -0.74600
O16         O  0.03279619  0.04449271  0.27370129    -0.74600
O17         O  0.45868801  0.03843327  0.28287655    -0.74700
O18         O  0.03478462  0.45593441  0.28583803    -0.74700
O19         O  0.04217449  0.45705101  0.21164660    -0.74700
O20         O  0.46382552  0.04257800  0.20849953    -0.74600
O21         O  0.03796361  0.04870742  0.19965811    -0.74600
O22         O  0.46864865  0.45261727  0.21707149    -0.74700
Ni23       Ni  0.49691335  0.49827816  0.28461817     1.25400
Ni24       Ni  0.00274805  0.00109879  0.20603472     1.25400
C25         C  0.45252936  0.43655567  0.25692013     0.87600
C26         C  0.04762140  0.06202579  0.23369732     0.87500
C27         C  0.44817178  0.05352608  0.24573224     0.87500
C28         C  0.05096436  0.44282701  0.25002670     0.87700
O29         O  0.18622155  0.32569907  0.04327346    -0.81100
O30         O  0.32305357  0.20698796  0.02202899    -0.65700
O31         O  0.25041094  0.29354277  0.49950465    -1.12400
C32         C  0.18240771  0.16553418  0.48745481     1.05800
O33         O  0.31630724  0.17740669  0.46503659    -0.79000
O34         O  0.26378383  0.20207153  0.41534925    -0.66500
Ni35       Ni  0.23835899  0.33669773  0.03593500     1.34900
C36         C  0.24838087  0.23824888  0.40388171     0.84600
O37         O  0.32296742  0.29526206  0.01277253    -0.79500
O38         O  0.28924683  0.35324286  0.03027599    -0.89800
C39         C  0.33464364  0.18359056  0.49524505     0.84100
O40         O  0.23804044  0.29986440  0.09285944    -0.68000
O41         O  0.21339634  0.14782219  0.47766871    -0.87300
C42         C  0.25278001  0.26321868  0.10423045     0.85000
C43         C  0.31990720  0.33494097  0.02033597     1.06500
H44         H  0.24237116  0.19187186  0.03855912     0.38300
O45         O  0.25071709  0.20821735  0.00876963    -1.09900
O46         O  0.22850004  0.25868982  0.43205877    -0.66600
Ni47       Ni  0.21403185  0.25034917  0.49692107     1.26300
O48         O  0.27262803  0.24277420  0.07613803    -0.66800
O49         O  0.17882746  0.20512215  0.49551735    -0.79100
C50         C  0.16736706  0.31909707  0.01375882     0.84400
O51         O  0.17761779  0.29399169  0.48733988    -0.66300
Ni52       Ni  0.26414047  0.16534950  0.47219012     1.27400
Ni53       Ni  0.28728797  0.25090345  0.01154180     1.26100
H54         H  0.25871009  0.30969155  0.46961989     0.38900
O55         O  0.19172145  0.32823752  0.29597226    -0.81100
O56         O  0.31675805  0.19565410  0.27156884    -0.65700
O57         O  0.25236320  0.29060107  0.24929279    -1.12400
C58         C  0.17175051  0.17780598  0.22975439     1.05800
O59         O  0.30514333  0.16380226  0.21491069    -0.79000
O60         O  0.26008216  0.20555369  0.16285473    -0.66500
Ni61       Ni  0.24420657  0.33419362  0.28816474     1.34900
C62         C  0.24601222  0.24275196  0.15219280     0.84600
O63         O  0.32454176  0.28344862  0.26394913    -0.79500
O64         O  0.29610581  0.34500141  0.28208216    -0.89800
C65         C  0.32486394  0.16876935  0.24409062     0.84100
O66         O  0.24239293  0.29619826  0.34464243    -0.68000
O67         O  0.20103070  0.15798671  0.21680861    -0.87300
C68         C  0.25410153  0.25764323  0.35551688     0.85000
C69         C  0.32485932  0.32327503  0.27157317     1.06500
H70         H  0.23513840  0.18992334  0.28757843     0.38300
O71         O  0.24453736  0.20638388  0.25808382    -1.09900
O72         O  0.22585570  0.26248856  0.18071510    -0.66600
Ni73       Ni  0.21189075  0.25355241  0.24574004     1.26300
O74         O  0.27072595  0.23523574  0.32677976    -0.66800
O75         O  0.17175392  0.21491736  0.24362737    -0.79100
C76         C  0.17346840  0.32867403  0.26437495     0.84400
O77         O  0.18083517  0.30250307  0.23603726    -0.66300
Ni78       Ni  0.25274600  0.16419484  0.21748641     1.27400
Ni79       Ni  0.28493740  0.24391270  0.26186522     1.26100
H80         H  0.26178613  0.30653152  0.21966974     0.38900
C81         C  0.11053504  0.34196837  0.24956319    -0.05900
C82         C  0.14215152  0.35839020  0.26178850     0.00000
C83         C  0.14364958  0.40296762  0.26948012    -0.08600
C84         C  0.11295991  0.42924576  0.26527530    -0.06000
C85         C  0.08157869  0.41271455  0.25314387     0.00000
C86         C  0.07988667  0.36848645  0.24542269    -0.08500
C87         C  0.04544487  0.34923692  0.23441266     0.61900
H88         H  0.10988190  0.30793013  0.24377374     0.12600
H89         H  0.11322905  0.46329726  0.27114911     0.12600
C90         C  0.17770794  0.42350887  0.28043321     0.62100
F91         F  0.03807607  0.37201222  0.19419488    -0.23100
F92         F  0.01619867  0.35299748  0.26822946    -0.20400
F93         F  0.04886501  0.30481686  0.23048961    -0.20100
F94         F  0.20788245  0.41713298  0.24880776    -0.20100
F95         F  0.18337200  0.40434355  0.32276607    -0.20400
F96         F  0.17459421  0.46873496  0.28018334    -0.23100
C97         C  0.41008699  0.39465474  0.22321128    -0.05900
C98         C  0.42244025  0.40233918  0.26252620     0.00000
C99         C  0.40452124  0.37899152  0.30483216    -0.08600
C100        C  0.37349426  0.35188051  0.30591334    -0.06000
C101        C  0.36036602  0.34662231  0.26667283     0.00000
C102        C  0.37946375  0.36736046  0.22437421    -0.08500
C103        C  0.36870839  0.36326821  0.17930160     0.61900
H104        H  0.42375490  0.41135960  0.19065021     0.12600
H105        H  0.35841335  0.33541164  0.33778195     0.12600
C106        C  0.41732577  0.38235760  0.34888414     0.62100
F107        F  0.39758797  0.34590533  0.15305878    -0.23100
F108        F  0.36167940  0.40493015  0.15762525    -0.20400
F109        F  0.33816702  0.33635349  0.18264755    -0.20100
F110        F  0.45421537  0.37335866  0.34523564    -0.20100
F111        F  0.39880648  0.35231568  0.38431038    -0.20400
F112        F  0.41124269  0.42442550  0.35944283    -0.23100
C113        C  0.42195153  0.12787694  0.24801465    -0.05900
C114        C  0.41665608  0.08285460  0.24602666     0.00000
C115        C  0.38148389  0.06627974  0.24429554    -0.08600
C116        C  0.35247774  0.09576382  0.24397658    -0.06000
C117        C  0.35745117  0.14091097  0.24587984     0.00000
C118        C  0.39279191  0.15761737  0.24770090    -0.08500
C119        C  0.40012613  0.20660670  0.24720201     0.61900
H120        H  0.44926013  0.13956848  0.24927976     0.12600
H121        H  0.32530401  0.08357939  0.24276286     0.12600
C122        C  0.37449718  0.01736516  0.24408064     0.62100
F123        F  0.43693750  0.21594207  0.24538145    -0.23100
F124        F  0.38111680  0.21959070  0.28577340    -0.20400
F125        F  0.38922124  0.23126983  0.20986410    -0.20100
F126        F  0.38280389  0.99284924  0.28300507    -0.20100
F127        F  0.39607525  0.00418921  0.20718019    -0.20400
F128        F  0.33830048  0.00820054  0.24213092    -0.23100
C129        C  0.07793480  0.11980992  0.26442121    -0.05900
C130        C  0.07676116  0.09736028  0.22783877     0.00000
C131        C  0.10480921  0.10681207  0.18923229    -0.08600
C132        C  0.13409404  0.13566877  0.19055303    -0.06000
C133        C  0.13643442  0.15539795  0.22846478     0.00000
C134        C  0.10726562  0.14856715  0.26562341    -0.08500
C135        C  0.10770920  0.16960381  0.30736712     0.61900
H136        H  0.05595347  0.11359903  0.29306979     0.12600
H137        H  0.15641333  0.14197540  0.16227074     0.12600
C138        C  0.10531414  0.08540854  0.14747262     0.62100
F139        F  0.07813760  0.15536282  0.34090391    -0.23100
F140        F  0.10624687  0.21520733  0.29648890    -0.20400
F141        F  0.13930219  0.15861224  0.32457658    -0.20100
F142        F  0.07457650  0.09702801  0.12860644    -0.20100
F143        F  0.10620746  0.03977290  0.15876393    -0.20400
F144        F  0.13566208  0.09893524  0.11489084    -0.23100
C145        C  0.07944510  0.37931255  0.04733645    -0.05900
C146        C  0.07191627  0.39889048  0.00497113     0.00000
C147        C  0.09273639  0.38565194  0.96561239    -0.08600
C148        C  0.12248826  0.35747773  0.97039895    -0.06000
C149        C  0.13197373  0.34183772  0.01251323     0.00000
C150        C  0.10878564  0.35061665  0.05185677    -0.08500
C151        C  0.11499165  0.33048365  0.09868654     0.61900
H152        H  0.06307341  0.38795980  0.07744534     0.12600
H153        H  0.13993300  0.34929382  0.94077958     0.12600
C154        C  0.08138200  0.39882129  0.42255898     0.62100
F155        F  0.14286211  0.35366860  0.11051449    -0.23100
F156        F  0.12406204  0.28636361  0.09998582    -0.20400
F157        F  0.08817311  0.34324417  0.63486872    -0.20100
F158        F  0.10597251  0.38032726  0.88657339    -0.20100
F159        F  0.09792246  0.96359711  0.41294177    -0.20400
F160        F  0.04456563  0.39045071  0.42350682    -0.23100
C161        C  0.41426900  0.37671452  0.03033008    -0.05900
C162        C  0.41492409  0.41939667  0.00524907     0.00000
C163        C  0.38215211  0.43734526  0.49388174    -0.08600
C164        C  0.35431414  0.40515286  0.99040050    -0.06000
C165        C  0.35354933  0.36231189  0.01549298     0.00000
C166        C  0.38430813  0.34724762  0.03505225    -0.08500
C167        C  0.38548783  0.30075319  0.06125188     0.61900
H168        H  0.43780683  0.36649685  0.04577621     0.12600
H169        H  0.32743404  0.42029928  0.48642540     0.12600
C170        C  0.37989521  0.48553820  0.47263229     0.62100
F171        F  0.41634105  0.29499253  0.08126984    -0.23100
F172        F  0.38622132  0.26997449  0.03252750    -0.20400
F173        F  0.35502425  0.29259926  0.09478000    -0.20100
F174        F  0.41175701  0.48406614  0.91912754    -0.20100
F175        F  0.38692419  0.51288554  0.50226522    -0.20400
F176        F  0.34560205  0.49531125  0.46207316    -0.23100
C177        C  0.42278008  0.12334109  0.46355562    -0.05900
C178        C  0.42935133  0.10280951  0.50609444    -0.00400
C179        C  0.40837527  0.11618285  0.54516930    -0.08600
C180        C  0.37872422  0.14456423  0.53990681    -0.06000
C181        C  0.36996669  0.16076459  0.49740886     0.00000
C182        C  0.39401678  0.15267932  0.45846688    -0.08500
C183        C  0.38974488  0.17469247  0.41144260     0.61900
H184        H  0.43959854  0.11515313  0.43353871     0.12600
H185        H  0.36093563  0.15258671  0.56935364     0.12600
C186        C  0.41634856  0.10069803  0.59229565     0.62100
F187        F  0.41140955  0.15355842  0.87486023    -0.23100
F188        F  0.37676182  0.20655649  0.90130406    -0.20400
F189        F  0.36196223  0.15352936  0.39727777    -0.20100
F190        F  0.46314581  0.61899874  0.07376584    -0.20100
F191        F  0.40820511  0.05583849  0.60501654    -0.20400
F192        F  0.39571980  0.12272849  0.62380641    -0.23100
C193        C  0.14881235  0.09374983  0.51377812    -0.05900
C194        C  0.14899005  0.13763075  0.49112682     0.00000
C195        C  0.11794925  0.15311461  0.47230829    -0.08600
C196        C  0.08765270  0.12396627  0.47729837    -0.06000
C197        C  0.08728537  0.08058290  0.50077633     0.00000
C198        C  0.11833987  0.06482372  0.51913263    -0.08500
C199        C  0.12162800  0.01683102  0.03475035     0.61900
H200        H  0.17280361  0.08236126  0.52769164     0.12600
H201        H  0.06370588  0.13490838  0.46304322     0.12600
C202        C  0.11708394  0.19952282  0.44579916     0.62100
F203        F  0.15352165  0.00797443  0.55528394    -0.23100
F204        F  0.11279369  0.49003622  0.51394123    -0.20400
F205        F  0.09618713  0.00741445  0.07386975    -0.20100
F206        F  0.14742349  0.20692476  0.41199914    -0.20100
F207        F  0.11666264  0.23161295  0.97231743    -0.20400
F208        F  0.08614807  0.20551916  0.42597359    -0.23100
O209        O  0.45471111  0.45722272  0.54518402    -0.74600
O210        O  0.03682106  0.03387804  0.54088422    -0.74600
O211        O  0.46332037  0.04432481  0.54377001    -0.74700
O212        O  0.02765026  0.44765265  0.54408500    -0.74700
O213        O  0.03769439  0.45544179  0.96642149    -0.74700
O214        O  0.47317744  0.05536633  0.96596453    -0.74600
O215        O  0.04599248  0.04570205  0.96238810    -0.74600
O216        O  0.46520540  0.46613623  0.96593763    -0.74700
Ni217      Ni  0.49474708  0.49638105  0.54561330     1.25400
Ni218      Ni  0.00563925  0.00698160  0.96221683     1.25400
C219        C  0.44667105  0.44856413  0.00384375     0.87600
C220        C  0.05545944  0.05261610  0.99906865     0.87500
C221        C  0.45671046  0.06643003  0.50678484     0.87500
C222        C  0.04366812  0.43624089  0.50706855     0.87700
O223        O  0.45925177  0.45055260  0.79147615    -0.74600
O224        O  0.03148658  0.04382898  0.77654395    -0.74600
O225        O  0.45732396  0.03937613  0.78464289    -0.74700
O226        O  0.03289134  0.45503559  0.78584855    -0.74700
O227        O  0.03994831  0.45702447  0.71154227    -0.74700
O228        O  0.46287767  0.04258666  0.71032104    -0.74600
O229        O  0.03697342  0.04764692  0.70250137    -0.74600
O230        O  0.46644073  0.45254835  0.71760983    -0.74700
Ni231      Ni  0.49505360  0.49744950  0.78547147     1.25400
Ni232      Ni  0.00138351  0.00057725  0.70884327     1.25400
C233        C  0.45064832  0.43606807  0.75744910     0.87600
C234        C  0.04667006  0.06091729  0.73651429     0.87500
C235        C  0.44708823  0.05405836  0.74724014     0.87500
C236        C  0.04891592  0.44234498  0.74975087     0.87700
O237        O  0.18578561  0.32538498  0.54531078    -0.81100
O238        O  0.32294763  0.20853141  0.52369610    -0.65700
O239        O  0.25083859  0.29276486  0.99825648    -1.12400
C240        C  0.18224870  0.16602705  0.98503722     1.05800
O241        O  0.31560153  0.17723822  0.96302395    -0.79000
O242        O  0.26343379  0.20198419  0.91385894    -0.66500
Ni243      Ni  0.23770974  0.33721122  0.53752053     1.34900
C244        C  0.24800191  0.23817486  0.90280888     0.84600
O245        O  0.32251834  0.29667212  0.51429648    -0.79500
O246        O  0.28842788  0.35416273  0.53213559    -0.89800
C247        C  0.33434011  0.18241775  0.99301518     0.84100
O248        O  0.23752974  0.30044802  0.59423965    -0.68000
O249        O  0.21312103  0.14810233  0.97541401    -0.87300
C250        C  0.25229294  0.26384316  0.60542408     0.85000
C251        C  0.31924710  0.33615616  0.52239835     1.06500
H252        H  0.24255210  0.19272014  0.53983212     0.38300
O253        O  0.25086503  0.20897166  0.50999245    -1.09900
O254        O  0.22844491  0.25851671  0.93114020    -0.66600
Ni255      Ni  0.21422005  0.24997774  0.99566609     1.26300
O256        O  0.27233876  0.24367037  0.57731673    -0.66800
O257        O  0.17874064  0.20533224  0.99383908    -0.79100
C258        C  0.16664016  0.31914112  0.51606244     0.84400
O259        O  0.17846200  0.29378477  0.98540881    -0.66300
Ni260      Ni  0.26371852  0.16507194  0.97039630     1.27400
Ni261      Ni  0.28710615  0.25203521  0.51281499     1.26100
H262        H  0.25925320  0.30882250  0.96835703     0.38900
O263        O  0.19063433  0.33007346  0.79550374    -0.81100
O264        O  0.31553478  0.19602658  0.77137158    -0.65700
O265        O  0.25103631  0.29092783  0.74920480    -1.12400
C266        C  0.17040082  0.17827364  0.73022729     1.05800
O267        O  0.30336936  0.16235545  0.71622435    -0.79000
O268        O  0.25972941  0.20622062  0.66382677    -0.66500
Ni269      Ni  0.24315789  0.33451190  0.78825839     1.34900
C270        C  0.24520497  0.24309447  0.65314655     0.84600
O271        O  0.32337534  0.28349664  0.76284851    -0.79500
O272        O  0.29500171  0.34424834  0.78318311    -0.89800
C273        C  0.32331361  0.16825663  0.74483932     0.84100
O274        O  0.24062657  0.29586333  0.84428667    -0.68000
O275        O  0.19970250  0.15913113  0.71617730    -0.87300
C276        C  0.25321367  0.25774075  0.85482165     0.85000
C277        C  0.32366787  0.32275921  0.77184537     1.06500
H278        H  0.23404810  0.19011346  0.78816562     0.38300
O279        O  0.24320778  0.20650468  0.75856389    -1.09900
O280        O  0.22420501  0.26222488  0.68143262    -0.66600
Ni281      Ni  0.21049645  0.25371516  0.74638979     1.26300
O282        O  0.27030044  0.23583658  0.82605576    -0.66800
O283        O  0.17033942  0.21493563  0.74494306    -0.79100
C284        C  0.17220177  0.32953430  0.76422915     0.84400
O285        O  0.17935455  0.30264246  0.73656483    -0.66300
Ni286      Ni  0.25120840  0.16429615  0.71790455     1.27400
Ni287      Ni  0.28372426  0.24414492  0.76139775     1.26100
H288        H  0.26020730  0.30687383  0.71952981     0.38900
C289        C  0.10823662  0.34107753  0.75292103    -0.05900
C290        C  0.14075853  0.35898178  0.76139048     0.00000
C291        C  0.14288186  0.40455191  0.76548439    -0.08600
C292        C  0.11211872  0.43056139  0.76074042    -0.06000
C293        C  0.07979935  0.41256298  0.75240221     0.00000
C294        C  0.07728150  0.36713764  0.74907636    -0.08500
C295        C  0.04175194  0.34623497  0.74306717     0.61900
H296        H  0.10709484  0.30622672  0.75010059     0.12600
H297        H  0.11290792  0.46541807  0.76371181     0.12600
C298        C  0.17751457  0.42620013  0.77363341     0.62100
F299        F  0.03210159  0.36569168  0.70282314    -0.23100
F300        F  0.01424785  0.35250293  0.77803526    -0.20400
F301        F  0.04469593  0.30105815  0.74283342    -0.20100
F302        F  0.20695768  0.41808099  0.74180712    -0.20100
F303        F  0.18421136  0.40946588  0.81617781    -0.20400
F304        F  0.17461875  0.47174970  0.77078526    -0.23100
C305        C  0.40874732  0.39369075  0.72359850    -0.05900
C306        C  0.42088989  0.40158153  0.76299128     0.00000
C307        C  0.40293519  0.37836531  0.80533405    -0.08600
C308        C  0.37212116  0.35103652  0.80634805    -0.06000
C309        C  0.35902855  0.34595798  0.76706751     0.00000
C310        C  0.37792188  0.36681304  0.72477061    -0.08500
C311        C  0.36642713  0.36367212  0.67981814     0.61900
H312        H  0.42246041  0.41031439  0.69102819     0.12600
H313        H  0.35703121  0.33449684  0.83818403     0.12600
C314        C  0.41518258  0.38252143  0.84952699     0.62100
F315        F  0.39428292  0.34499848  0.65323125    -0.23100
F316        F  0.36063712  0.40586015  0.65833434    -0.20400
F317        F  0.33483959  0.33853110  0.68337076    -0.20100
F318        F  0.45205141  0.37369901  0.84671970    -0.20100
F319        F  0.39637984  0.35297728  0.88517962    -0.20400
F320        F  0.40879596  0.42482992  0.85915962    -0.23100
C321        C  0.42029761  0.12797455  0.75036711    -0.05900
C322        C  0.41552885  0.08320384  0.74699165     0.00000
C323        C  0.38067502  0.06649508  0.74407513    -0.08600
C324        C  0.35149342  0.09566259  0.74379593    -0.06000
C325        C  0.35595814  0.14060023  0.74694108     0.00000
C326        C  0.39093189  0.15738386  0.75016826    -0.08500
C327        C  0.39763922  0.20612556  0.75156555     0.61900
H328        H  0.44732099  0.13970862  0.75281113     0.12600
H329        H  0.32456798  0.08335521  0.74167431     0.12600
C330        C  0.37411744  0.01769202  0.74287281     0.62100
F331        F  0.43438258  0.21595868  0.74954906    -0.23100
F332        F  0.37870811  0.21721501  0.79112857    -0.20400
F333        F  0.38610565  0.23192354  0.71528051    -0.20100
F334        F  0.38217509  0.99273873  0.78167903    -0.20100
F335        F  0.39614617  0.00526140  0.70589191    -0.20400
F336        F  0.33809716  0.00830232  0.74028337    -0.23100
C337        C  0.07717164  0.11912809  0.76645010    -0.05900
C338        C  0.07609303  0.09591742  0.73040110     0.00000
C339        C  0.10433659  0.10454212  0.69190563    -0.08600
C340        C  0.13308600  0.13449934  0.69226624    -0.06000
C341        C  0.13523008  0.15529245  0.72954477     0.00000
C342        C  0.10639171  0.14827920  0.76707127    -0.08500
C343        C  0.10726357  0.16926077  0.80875522     0.61900
H344        H  0.05526401  0.11313532  0.79519523     0.12600
H345        H  0.15528895  0.14066521  0.66383476     0.12600
C346        C  0.10584347  0.08083778  0.65148562     0.62100
F347        F  0.07787610  0.15510458  0.84256604    -0.23100
F348        F  0.10591560  0.21488315  0.79801701    -0.20400
F349        F  0.13901436  0.15802709  0.82553048    -0.20100
F350        F  0.07581017  0.09141146  0.63088335    -0.20100
F351        F  0.10638625  0.03546952  0.66521565    -0.20400
F352        F  0.13688635  0.09283430  0.61952824    -0.23100
C353        C  0.08057561  0.38309137  0.55042740    -0.05900
C354        C  0.07151407  0.40042602  0.50826394     0.00000
C355        C  0.09077710  0.38494054  0.46928417    -0.08600
C356        C  0.12027509  0.35624366  0.47396192    -0.06000
C357        C  0.13125986  0.34247537  0.51562032     0.00000
C358        C  0.10981157  0.35425211  0.55499551    -0.08500
C359        C  0.11755602  0.33724383  0.60198694     0.61900
H360        H  0.06552481  0.39378567  0.58026953     0.12600
H361        H  0.13640179  0.34619672  0.44439459     0.12600
C362        C  0.08480919  0.40142853  0.91843904     0.62100
F363        F  0.14753524  0.35988439  0.60964746    -0.23100
F364        F  0.12418983  0.29228562  0.60664344    -0.20400
F365        F  0.08382855  0.33205831  0.13044186    -0.20100
F366        F  0.10094885  0.37570183  0.39125227    -0.20100
F367        F  0.10118450  0.96740487  0.91363381    -0.20400
F368        F  0.04849035  0.39241328  0.91705197    -0.23100
C369        C  0.41469976  0.37663848  0.53069963    -0.05900
C370        C  0.41381677  0.42094187  0.51025278     0.00000
C371        C  0.38486959  0.43393259  0.98423513    -0.08600
C372        C  0.35195606  0.40833619  0.49874964    -0.06000
C373        C  0.35274723  0.36367509  0.51872687     0.00000
C374        C  0.38476905  0.34720827  0.53474838    -0.08500
C375        C  0.38743700  0.29924896  0.55652795     0.61900
H376        H  0.43938093  0.36518052  0.54296822     0.12600
H377        H  0.33076083  0.41573109  0.97514820     0.12600
C378        C  0.38456775  0.47998229  0.95668855     0.62100
F379        F  0.41890430  0.29237881  0.57517647    -0.23100
F380        F  0.38825336  0.27177038  0.52456205    -0.20400
F381        F  0.35772015  0.28757147  0.59051946    -0.20100
F382        F  0.40528211  0.49463116  0.43340033    -0.20100
F383        F  0.39046980  0.51169411  0.98245041    -0.20400
F384        F  0.35148414  0.48841976  0.94212813    -0.23100
C385        C  0.41958116  0.11713858  0.95998509    -0.05900
C386        C  0.42947229  0.10158311  0.00213051    -0.00400
C387        C  0.41140172  0.11914726  0.04034751    -0.08600
C388        C  0.38158614  0.14734921  0.03535305    -0.06000
C389        C  0.36965603  0.15906943  0.99383382     0.00000
C390        C  0.39051766  0.14589315  0.95486432    -0.08500
C391        C  0.38252014  0.16137882  0.90765981     0.61900
H392        H  0.43387791  0.10513700  0.93049347     0.12600
H393        H  0.36620322  0.15883612  0.06458128     0.12600
C394        C  0.42286472  0.10857542  0.08626440     0.62100
F395        F  0.42161432  0.17276207  0.38076193    -0.23100
F396        F  0.38177765  0.21900732  0.41122517    -0.20400
F397        F  0.35195621  0.13890341  0.90136300    -0.20100
F398        F  0.45592174  0.61651082  0.58366864    -0.20100
F399        F  0.41484882  0.06454044  0.10433374    -0.20400
F400        F  0.40479957  0.13416282  0.11630152    -0.23100
C401        C  0.14935944  0.09410205  0.00905459    -0.05900
C402        C  0.14898965  0.13840395  0.98792020     0.00000
C403        C  0.11782602  0.15424014  0.96958051    -0.08600
C404        C  0.08757853  0.12507898  0.97440621    -0.06000
C405        C  0.08773846  0.08129170  0.99671544     0.00000
C406        C  0.11923787  0.06503878  0.01365121    -0.08500
C407        C  0.11984996  0.01723309  0.54260147     0.61900
H408        H  0.17354790  0.08243637  0.02237071     0.12600
H409        H  0.06335326  0.13625740  0.96089095     0.12600
C410        C  0.11683538  0.20089255  0.94363916     0.62100
F411        F  0.15593206  0.00718126  0.04535011    -0.23100
F412        F  0.11282273  0.48850171  0.01859086    -0.20400
F413        F  0.09340123  0.00959119  0.58090811    -0.20100
F414        F  0.14713158  0.20873371  0.90981014    -0.20100
F415        F  0.11693307  0.23064921  0.47404844    -0.20400
F416        F  0.08586328  0.20706345  0.92389004    -0.23100
O417        O  0.45657635  0.95558948  0.04187573    -0.74600
O418        O  0.03574099  0.53443204  0.03839121    -0.74600
O419        O  0.46286237  0.54424981  0.03779141    -0.74700
O420        O  0.03016185  0.94700310  0.03838356    -0.74700
O421        O  0.03629873  0.95801907  0.46637256    -0.74700
O422        O  0.47283712  0.55489769  0.46675203    -0.74600
O423        O  0.04531354  0.54510099  0.46596584    -0.74600
O424        O  0.46346255  0.96874284  0.46918680    -0.74700
Ni425      Ni  0.49669900  0.99505021  0.04231124     1.25400
Ni426      Ni  0.00520981  0.50619790  0.46549255     1.25400
C427        C  0.44556160  0.95007379  0.50704408     0.87600
C428        C  0.05395013  0.55302895  0.50274644     0.87500
C429        C  0.45748671  0.56533776  0.99978682     0.87500
C430        C  0.04573240  0.93699617  0.00052802     0.87700
O431        O  0.46195274  0.94906550  0.29176122    -0.74600
O432        O  0.03329468  0.54521973  0.27261089    -0.74600
O433        O  0.45953335  0.54089706  0.27862143    -0.74700
O434        O  0.03604424  0.95529615  0.28309175    -0.74700
O435        O  0.04116571  0.95909196  0.20877945    -0.74700
O436        O  0.46648911  0.54214924  0.20444524    -0.74600
O437        O  0.04030739  0.54664540  0.19876886    -0.74600
O438        O  0.46726309  0.95334992  0.21780372    -0.74700
Ni439      Ni  0.49721092  0.99667429  0.28548682     1.25400
Ni440      Ni  0.00467192  0.49969508  0.20532705     1.25400
C441        C  0.45230705  0.93575137  0.25771918     0.87600
C442        C  0.04919285  0.56115996  0.23257290     0.87500
C443        C  0.45020094  0.55482154  0.24054709     0.87500
C444        C  0.05139654  0.94372715  0.24605954     0.87700
O445        O  0.18755709  0.82663196  0.03888315    -0.81100
O446        O  0.32370523  0.70588692  0.01636400    -0.65700
O447        O  0.25078414  0.79387102  0.49351463    -1.12400
C448        C  0.18096352  0.66683663  0.48365867     1.05800
O449        O  0.31454137  0.67589224  0.45943272    -0.79000
O450        O  0.26205889  0.70060541  0.41055098    -0.66500
Ni451      Ni  0.23988815  0.83599455  0.03221564     1.34900
C452        C  0.24750664  0.73728434  0.39889454     0.84600
O453        O  0.32457603  0.79411746  0.00765682    -0.79500
O454        O  0.29093561  0.85119085  0.02774306    -0.89800
C455        C  0.33359603  0.68226379  0.48879292     0.84100
O456        O  0.23873182  0.79802180  0.08845531    -0.68000
O457        O  0.21154230  0.64826052  0.47409939    -0.87300
C458        C  0.25398535  0.76170181  0.09957008     0.85000
C459        C  0.32161340  0.83322555  0.01702007     1.06500
H460        H  0.24280930  0.69170048  0.03465663     0.38300
O461        O  0.25102933  0.70773228  0.00469688    -1.09900
O462        O  0.22838819  0.75855939  0.42681384    -0.66600
Ni463      Ni  0.21398258  0.75114971  0.49138184     1.26300
O464        O  0.27430591  0.74181581  0.07139751    -0.66800
O465        O  0.17808342  0.70673641  0.49066643    -0.79100
C466        C  0.16880503  0.82039089  0.00917046     0.84400
O467        O  0.17840822  0.79512768  0.48058741    -0.66300
Ni468      Ni  0.26240964  0.66473545  0.46770905     1.27400
Ni469      Ni  0.28819658  0.75011015  0.00668357     1.26100
H470        H  0.25905937  0.80994129  0.46358633     0.38900
O471        O  0.19230993  0.82905276  0.28920355    -0.81100
O472        O  0.31766638  0.69500645  0.26753799    -0.65700
O473        O  0.25362263  0.79045229  0.24452926    -1.12400
C474        C  0.17328156  0.67707648  0.22596029     1.05800
O475        O  0.30656077  0.66451779  0.20992919    -0.79000
O476        O  0.26047140  0.70361842  0.15822382    -0.66500
Ni477      Ni  0.24475920  0.83366471  0.28374015     1.34900
C478        C  0.24725277  0.74129787  0.14741970     0.84600
O479        O  0.32544126  0.78270890  0.26054530    -0.79500
O480        O  0.29651056  0.84334427  0.28039758    -0.89800
C481        C  0.32612144  0.66879439  0.23943001     0.84100
O482        O  0.24106180  0.79468435  0.33972561    -0.68000
O483        O  0.20239315  0.65638001  0.21433389    -0.87300
C484        C  0.25354369  0.75659192  0.35070855     0.85000
C485        C  0.32542170  0.82195924  0.26975108     1.06500
H486        H  0.23594399  0.69007308  0.28303018     0.38300
O487        O  0.24565437  0.70626811  0.25351054    -1.09900
O488        O  0.22794903  0.76190761  0.17577808    -0.66600
Ni489      Ni  0.21327176  0.75354579  0.24042081     1.26300
O490        O  0.27140000  0.73478830  0.32230700    -0.66800
O491        O  0.17334517  0.71505748  0.23792236    -0.79100
C492        C  0.17476604  0.82942986  0.25696171     0.84400
O493        O  0.18242555  0.80263282  0.22931921    -0.66300
Ni494      Ni  0.25411502  0.66345826  0.21365937     1.27400
Ni495      Ni  0.28600364  0.74349754  0.25760367     1.26100
H496        H  0.26330229  0.80648250  0.21506025     0.38900
C497        C  0.11243011  0.84407335  0.23961279    -0.05900
C498        C  0.14376383  0.85970878  0.25317315     0.00000
C499        C  0.14506751  0.90392351  0.26201468    -0.08600
C500        C  0.11414294  0.93011351  0.25897221    -0.06000
C501        C  0.08270079  0.91407534  0.24652581     0.00000
C502        C  0.08158049  0.87059948  0.23637809    -0.08500
C503        C  0.04743770  0.85190530  0.22409786     0.61900
H504        H  0.11198740  0.81046532  0.23253782     0.12600
H505        H  0.11419829  0.96365379  0.26634971     0.12600
C506        C  0.17917713  0.92422073  0.27310536     0.62100
F507        F  0.03993369  0.87652087  0.18478150    -0.23100
F508        F  0.01804466  0.85357560  0.25832833    -0.20400
F509        F  0.05144211  0.80818670  0.21765731    -0.20100
F510        F  0.20934331  0.91779941  0.24148395    -0.20100
F511        F  0.18481093  0.90492460  0.31539912    -0.20400
F512        F  0.17618675  0.96944005  0.27294107    -0.23100
C513        C  0.41174252  0.89169257  0.22365558    -0.05900
C514        C  0.42237515  0.90126918  0.26331568     0.00000
C515        C  0.40255986  0.88007093  0.30562631    -0.08600
C516        C  0.37202350  0.85240145  0.30594913    -0.06000
C517        C  0.36071755  0.84528025  0.26613274     0.00000
C518        C  0.38108700  0.86475796  0.22413980    -0.08500
C519        C  0.37120499  0.86062448  0.17860647     0.61900
H520        H  0.42662189  0.90698377  0.19117595     0.12600
H521        H  0.35572802  0.83717731  0.33755935     0.12600
C522        C  0.41237434  0.88687688  0.35045375     0.62100
F523        F  0.40037198  0.84304466  0.15305149    -0.23100
F524        F  0.36467974  0.90237336  0.15670171    -0.20400
F525        F  0.34063918  0.83404321  0.18101120    -0.20100
F526        F  0.44854227  0.87633824  0.35164168    -0.20100
F527        F  0.39103583  0.86028146  0.38648185    -0.20400
F528        F  0.40690845  0.93048054  0.35637390    -0.23100
C529        C  0.42325981  0.62855033  0.24462983    -0.05900
C530        C  0.41897729  0.58435479  0.23884214     0.00000
C531        C  0.38451487  0.56809107  0.23396646    -0.08600
C532        C  0.35520534  0.59712619  0.23428334    -0.06000
C533        C  0.35905797  0.64137426  0.24036338     0.00000
C534        C  0.39370921  0.65773920  0.24535785    -0.08500
C535        C  0.39983684  0.70577178  0.25009205     0.61900
H536        H  0.44996196  0.63989398  0.24873689     0.12600
H537        H  0.32855015  0.58508519  0.23079112     0.12600
C538        C  0.37835313  0.51964148  0.23079554     0.62100
F539        F  0.43642730  0.71562939  0.24915729    -0.23100
F540        F  0.38042315  0.71409651  0.29057605    -0.20400
F541        F  0.38837615  0.73362158  0.21504254    -0.20100
F542        F  0.38532051  0.49347300  0.26956351    -0.20100
F543        F  0.40142207  0.50833599  0.19400338    -0.20400
F544        F  0.34273198  0.51064662  0.22622480    -0.23100
C545        C  0.07969998  0.61954696  0.26219222    -0.05900
C546        C  0.07854349  0.59620603  0.22624557     0.00000
C547        C  0.10654362  0.60501880  0.18750748    -0.08600
C548        C  0.13567972  0.63423238  0.18803126    -0.06000
C549        C  0.13800341  0.65474493  0.22530924     0.00000
C550        C  0.10895300  0.64869500  0.26254138    -0.08500
C551        C  0.10940093  0.67123551  0.30331316     0.61900
H552        H  0.05776960  0.61387830  0.29092813     0.12600
H553        H  0.15800896  0.64011332  0.15972186     0.12600
C554        C  0.10744382  0.58236258  0.14657822     0.62100
F555        F  0.07978029  0.65793102  0.33707864    -0.23100
F556        F  0.10801795  0.71668560  0.29089195    -0.20400
F557        F  0.14097173  0.66095572  0.32082597    -0.20100
F558        F  0.07659256  0.59254789  0.12747816    -0.20100
F559        F  0.10917338  0.53696593  0.15919261    -0.20400
F560        F  0.13761520  0.59590859  0.11377262    -0.23100
C561        C  0.07847041  0.87652706  0.04110959    -0.05900
C562        C  0.07456582  0.90240786  0.99974615     0.00000
C563        C  0.10005379  0.89690042  0.96038130    -0.08600
C564        C  0.12928134  0.86780183  0.96492072    -0.06000
C565        C  0.13436892  0.84481685  0.00680801     0.00000
C566        C  0.10791451  0.84789782  0.04538678    -0.08500
C567        C  0.11054069  0.82092826  0.09096985     0.61900
H568        H  0.05884529  0.87992080  0.07086199     0.12600
H569        H  0.14965600  0.86431371  0.93584888     0.12600
C570        C  0.09279202  0.91839876  0.41507947     0.62100
F571        F  0.13850034  0.83792286  0.10849386    -0.23100
F572        F  0.11726946  0.77711963  0.08661127    -0.20400
F573        F  0.07839065  0.82200001  0.62360321    -0.20100
F574        F  0.12538235  0.91119384  0.88109798    -0.20100
F575        F  0.08963503  0.44346765  0.40796329    -0.20400
F576        F  0.05858250  0.90951645  0.40570239    -0.23100
C577        C  0.41504038  0.87633002  0.03041610    -0.05900
C578        C  0.41524638  0.91956409  0.00651275     0.00000
C579        C  0.38410001  0.93548216  0.48589384    -0.08600
C580        C  0.35542694  0.90419973  0.98960364    -0.06000
C581        C  0.35513667  0.86081762  0.01331784     0.00000
C582        C  0.38570157  0.84613017  0.03350878    -0.08500
C583        C  0.38719947  0.79934748  0.05887012     0.61900
H584        H  0.43846082  0.86623970  0.04613929     0.12600
H585        H  0.33111680  0.91672656  0.47351195     0.12600
C586        C  0.38343662  0.98210248  0.45965818     0.62100
F587        F  0.41829479  0.79332762  0.07840542    -0.23100
F588        F  0.38771651  0.76910074  0.02963285    -0.20400
F589        F  0.35695665  0.79067400  0.09264275    -0.20100
F590        F  0.41105068  0.98676029  0.92189191    -0.20100
F591        F  0.38812261  0.01295669  0.48688250    -0.20400
F592        F  0.35060620  0.99033395  0.44437850    -0.23100
C593        C  0.41944596  0.61705273  0.45808080    -0.05900
C594        C  0.42858792  0.60199608  0.50077527    -0.00400
C595        C  0.40941017  0.61937045  0.53852444    -0.08600
C596        C  0.37985236  0.64753558  0.53235871    -0.06000
C597        C  0.36875734  0.65888035  0.49035120     0.00000
C598        C  0.39019792  0.64534587  0.45197545    -0.08500
C599        C  0.38222725  0.65924797  0.40455098     0.61900
H600        H  0.43435240  0.60484698  0.42902981     0.12600
H601        H  0.36380358  0.65906833  0.56114554     0.12600
C602        C  0.41900934  0.60811050  0.58539527     0.62100
F603        F  0.41036997  0.64928687  0.86939980    -0.23100
F604        F  0.37551592  0.70263960  0.89475794    -0.20400
F605        F  0.35305989  0.63413892  0.39837006    -0.20100
F606        F  0.46002473  0.11711330  0.08221745    -0.20100
F607        F  0.41053007  0.56394721  0.60247722    -0.20400
F608        F  0.39977652  0.63322603  0.61506979    -0.23100
C609        C  0.14756188  0.59569047  0.51173007    -0.05900
C610        C  0.14728129  0.63938150  0.48883435     0.00000
C611        C  0.11563398  0.65490869  0.47141425    -0.08600
C612        C  0.08538856  0.62559114  0.47739216    -0.06000
C613        C  0.08578567  0.58220065  0.50054686     0.00000
C614        C  0.11715180  0.56670289  0.51818377    -0.08500
C615        C  0.11740768  0.51939883  0.04579380     0.61900
H616        H  0.17192869  0.58445028  0.52486607     0.12600
H617        H  0.06098658  0.63628648  0.46402775     0.12600
C618        C  0.11398879  0.70143412  0.44543817     0.62100
F619        F  0.15286897  0.51051974  0.55440486    -0.23100
F620        F  0.11380810  0.98839099  0.51389624    -0.20400
F621        F  0.08959631  0.51351704  0.08271843    -0.20100
F622        F  0.14367320  0.70942068  0.41079041    -0.20100
F623        F  0.11720296  0.73052489  0.96457437    -0.20400
F624        F  0.08245262  0.70723333  0.42678069    -0.23100
O625        O  0.45506591  0.95596631  0.54410844    -0.74600
O626        O  0.03552645  0.53608815  0.54096237    -0.74600
O627        O  0.46251660  0.54585101  0.54134244    -0.74700
O628        O  0.02844814  0.94603450  0.54089675    -0.74700
O629        O  0.03769913  0.95778739  0.96385480    -0.74700
O630        O  0.47422515  0.55413074  0.96313480    -0.74600
O631        O  0.04646003  0.54354842  0.96341688    -0.74600
O632        O  0.46467476  0.96758646  0.96695060    -0.74700
Ni633      Ni  0.49556366  0.99462756  0.54515992     1.25400
Ni634      Ni  0.00626055  0.50511777  0.96212437     1.25400
C635        C  0.44701639  0.94909048  0.00502495     0.87600
C636        C  0.05465346  0.55135641  0.00046593     0.87500
C637        C  0.45641522  0.56635790  0.50344596     0.87500
C638        C  0.04390234  0.93631819  0.50287498     0.87700
O639        O  0.45915608  0.94990187  0.79439988    -0.74600
O640        O  0.03153519  0.54434275  0.77362402    -0.74600
O641        O  0.45752087  0.54009724  0.78042253    -0.74700
O642        O  0.03310973  0.95438964  0.78714544    -0.74700
O643        O  0.03926569  0.95806290  0.71269577    -0.74700
O644        O  0.46377488  0.54201162  0.70620673    -0.74600
O645        O  0.03778994  0.54668088  0.69969421    -0.74600
O646        O  0.46552296  0.95337374  0.72042367    -0.74700
Ni647      Ni  0.49509122  0.99677993  0.78832960     1.25400
Ni648      Ni  0.00223102  0.49970793  0.70609744     1.25400
C649        C  0.44993953  0.93633056  0.76022873     0.87600
C650        C  0.04720668  0.56053544  0.73354896     0.87500
C651        C  0.44776766  0.55433179  0.74265033     0.87500
C652        C  0.04871326  0.94254068  0.75039730     0.87700
O653        O  0.18609329  0.82744422  0.53826005    -0.81100
O654        O  0.32275019  0.70782355  0.51700997    -0.65700
O655        O  0.25177011  0.79234304  0.99398850    -1.12400
C656        C  0.18147141  0.66544269  0.98367310     1.05800
O657        O  0.31517356  0.67533568  0.95813281    -0.79000
O658        O  0.26194471  0.70011996  0.91004045    -0.66500
Ni659      Ni  0.23834433  0.83754078  0.53159314     1.34900
C660        C  0.24721287  0.73685074  0.89895185     0.84600
O661        O  0.32323071  0.79616283  0.50753359    -0.79500
O662        O  0.28929010  0.85327022  0.52707980    -0.89800
C663        C  0.33452393  0.68109224  0.98741562     0.84100
O664        O  0.23718330  0.80009031  0.58824663    -0.68000
O665        O  0.21208511  0.64698243  0.97391992    -0.87300
C666        C  0.25253612  0.76389738  0.59957234     0.85000
C667        C  0.32004193  0.83534705  0.51662424     1.06500
H668        H  0.24191847  0.69347391  0.53490033     0.38300
O669        O  0.25027894  0.70921862  0.50485159    -1.09900
O670        O  0.22849435  0.75785393  0.92736734    -0.66600
Ni671      Ni  0.21464220  0.74980981  0.99191608     1.26300
O672        O  0.27303472  0.74406734  0.57146784    -0.66800
O673        O  0.17853007  0.70533291  0.99099827    -0.79100
C674        C  0.16725989  0.82048295  0.50887445     0.84400
O675        O  0.17921134  0.79414462  0.98152794    -0.66300
Ni676      Ni  0.26299404  0.66378802  0.96692783     1.27400
Ni677      Ni  0.28719015  0.75186438  0.50673497     1.26100
H678        H  0.25995431  0.80848238  0.96407203     0.38900
O679        O  0.18968115  0.82859080  0.79119994    -0.81100
O680        O  0.31634558  0.69671051  0.76676081    -0.65700
O681        O  0.25107643  0.79109922  0.74495261    -1.12400
C682        C  0.17165828  0.67730458  0.72536035     1.05800
O683        O  0.30503865  0.66449383  0.71021889    -0.79000
O684        O  0.26008574  0.70627014  0.65809908    -0.66500
Ni685      Ni  0.24217041  0.83392644  0.78471882     1.34900
C686        C  0.24569941  0.74326658  0.64748581     0.84600
O687        O  0.32319065  0.78429915  0.76015991    -0.79500
O688        O  0.29389105  0.84452672  0.78039346    -0.89800
C689        C  0.32456618  0.66962524  0.73952159     0.84100
O690        O  0.23963791  0.79464969  0.84048453    -0.68000
O691        O  0.20109436  0.65806422  0.71184075    -0.87300
C692        C  0.25245775  0.75659939  0.85087756     0.85000
C693        C  0.32294673  0.82351764  0.76944260     1.06500
H694        H  0.23471927  0.69014261  0.78263132     0.38300
O695        O  0.24406957  0.70676965  0.75320007    -1.09900
O696        O  0.22514745  0.76265598  0.67600141    -0.66600
Ni697      Ni  0.21101647  0.75358524  0.74104907     1.26300
O698        O  0.26996445  0.73515353  0.82195109    -0.66800
O699        O  0.17135335  0.71449113  0.73901092    -0.79100
C700        C  0.17171053  0.82845570  0.75940027     0.84400
O701        O  0.17935534  0.80208815  0.73131492    -0.66300
Ni702      Ni  0.25270996  0.66468217  0.71255612     1.27400
Ni703      Ni  0.28409868  0.74461095  0.75722515     1.26100
H704        H  0.26039162  0.80742552  0.71550422     0.38900
C705        C  0.10632971  0.83979429  0.75417173    -0.05900
C706        C  0.14053014  0.85820014  0.75637197     0.00000
C707        C  0.14456337  0.90460877  0.75491436    -0.08600
C708        C  0.11367009  0.93095109  0.75267390    -0.06000
C709        C  0.07948903  0.91240888  0.75145372     0.00000
C710        C  0.07538222  0.86633059  0.75216552    -0.08500
C711        C  0.03833298  0.84556010  0.75178944     0.61900
H712        H  0.10393856  0.80436110  0.75487903     0.12600
H713        H  0.11588035  0.96644510  0.75193773     0.12600
C714        C  0.18149689  0.92652623  0.75404257     0.62100
F715        F  0.02553354  0.86369796  0.71308858    -0.23100
F716        F  0.01374452  0.85367339  0.78886557    -0.20400
F717        F  0.04012092  0.80009054  0.75313944    -0.20100
F718        F  0.20688491  0.91444339  0.71962471    -0.20100
F719        F  0.19324117  0.91358293  0.79460695    -0.20400
F720        F  0.17986168  0.97235916  0.74692135    -0.23100
C721        C  0.41094558  0.89088529  0.72548037    -0.05900
C722        C  0.41986318  0.90214250  0.76539452     0.00000
C723        C  0.39838062  0.88275856  0.80732690    -0.08600
C724        C  0.36772164  0.85565193  0.80687204    -0.06000
C725        C  0.35813622  0.84682912  0.76667883     0.00000
C726        C  0.38042017  0.86403263  0.72515590    -0.08500
C727        C  0.37303952  0.85730736  0.67916964     0.61900
H728        H  0.42727885  0.90454572  0.69331624     0.12600
H729        H  0.35012690  0.84195041  0.83811082     0.12600
C730        C  0.40662380  0.89079336  0.85250082     0.62100
F731        F  0.40294482  0.83757613  0.65732631    -0.23100
F732        F  0.36838474  0.89815665  0.65405319    -0.20400
F733        F  0.34240833  0.83116903  0.68065300    -0.20100
F734        F  0.44227572  0.87950776  0.85610409    -0.20100
F735        F  0.38387001  0.86559284  0.88825620    -0.20400
F736        F  0.40159781  0.93488526  0.85660112    -0.23100
C737        C  0.42181807  0.62914063  0.74273675    -0.05900
C738        C  0.41646039  0.58391829  0.74163797     0.00000
C739        C  0.38114229  0.56707455  0.74099276    -0.08600
C740        C  0.35206624  0.59646298  0.74075443    -0.06000
C741        C  0.35712565  0.64179616  0.74166239     0.00000
C742        C  0.39257378  0.65877847  0.74247144    -0.08500
C743        C  0.39980680  0.70791286  0.74117671     0.61900
H744        H  0.44917307  0.64102323  0.74351278     0.12600
H745        H  0.32479495  0.58409586  0.74027470     0.12600
C746        C  0.37413488  0.51800778  0.74164625     0.62100
F747        F  0.43673803  0.71767428  0.73774578    -0.23100
F748        F  0.38163561  0.72108348  0.78009930    -0.20400
F749        F  0.38777818  0.73207305  0.70435338    -0.20100
F750        F  0.38310872  0.49399410  0.78045522    -0.20100
F751        F  0.39520024  0.50451523  0.70456579    -0.20400
F752        F  0.33779163  0.50855063  0.74073344    -0.23100
C753        C  0.07791566  0.61938015  0.76230746    -0.05900
C754        C  0.07695548  0.59509027  0.72707050     0.00000
C755        C  0.10555701  0.60232693  0.68890608    -0.08600
C756        C  0.13457249  0.63198958  0.68880633    -0.06000
C757        C  0.13652744  0.65402416  0.72524609     0.00000
C758        C  0.10726451  0.64854416  0.76236029    -0.08500
C759        C  0.10758910  0.67144645  0.80293365     0.61900
H760        H  0.05570428  0.61442533  0.79075121     0.12600
H761        H  0.15702682  0.63711703  0.66062046     0.12600
C762        C  0.10709081  0.57750743  0.64931678     0.62100
F763        F  0.07784808  0.65844520  0.83661767    -0.23100
F764        F  0.10631206  0.71684924  0.79023141    -0.20400
F765        F  0.13903477  0.66116381  0.82072245    -0.20100
F766        F  0.07733922  0.58795798  0.62813834    -0.20100
F767        F  0.10712693  0.53230656  0.66431116    -0.20400
F768        F  0.13837731  0.58843548  0.61749420    -0.23100
C769        C  0.07683823  0.87557316  0.54293327    -0.05900
C770        C  0.07216117  0.90103320  0.50164151     0.00000
C771        C  0.09636835  0.89429498  0.46169416    -0.08600
C772        C  0.12571556  0.86530151  0.46560462    -0.06000
C773        C  0.13207830  0.84347408  0.50738220     0.00000
C774        C  0.10634993  0.84690456  0.54657692    -0.08500
C775        C  0.10973625  0.82018003  0.59208623     0.61900
H776        H  0.05790183  0.87947744  0.57309452     0.12600
H777        H  0.14539282  0.86134910  0.43604922     0.12600
C778        C  0.09781506  0.92226468  0.91381824     0.62100
F779        F  0.13868912  0.83656518  0.60827826    -0.23100
F780        F  0.11540910  0.77612522  0.58793451    -0.20400
F781        F  0.07840329  0.82173243  0.12136544    -0.20100
F782        F  0.11850742  0.90512888  0.38166303    -0.20100
F783        F  0.09237679  0.44648228  0.90625903    -0.20400
F784        F  0.06476395  0.91248362  0.90183869    -0.23100
C785        C  0.41290127  0.87772639  0.53209011    -0.05900
C786        C  0.41364829  0.92095657  0.50801233     0.00000
C787        C  0.38519035  0.93384412  0.98529780    -0.08600
C788        C  0.35422854  0.90613578  0.48963902    -0.06000
C789        C  0.35349185  0.86277226  0.51343375     0.00000
C790        C  0.38359358  0.84775767  0.53433310    -0.08500
C791        C  0.38474083  0.80067106  0.55913364     0.61900
H792        H  0.43597557  0.86734924  0.54837708     0.12600
H793        H  0.33200039  0.91461858  0.97402751     0.12600
C794        C  0.38388424  0.98056006  0.95951652     0.62100
F795        F  0.41493815  0.79446864  0.58033261    -0.23100
F796        F  0.38669616  0.77113259  0.52897925    -0.20400
F797        F  0.35364174  0.79114633  0.59149460    -0.20100
F798        F  0.41111929  0.98779779  0.42257317    -0.20100
F799        F  0.38890416  0.01123030  0.98679199    -0.20400
F800        F  0.35064802  0.98858586  0.94521205    -0.23100
C801        C  0.41955889  0.61505541  0.95485767    -0.05900
C802        C  0.43008527  0.60136221  0.99700069    -0.00400
C803        C  0.41295260  0.62088449  0.03428987    -0.08600
C804        C  0.38289163  0.64846193  0.02903952    -0.06000
C805        C  0.37002295  0.65808631  0.98791760     0.00000
C806        C  0.39036717  0.64361421  0.94933243    -0.08500
C807        C  0.38169203  0.65757627  0.90224803     0.61900
H808        H  0.43336033  0.60166769  0.92593839     0.12600
H809        H  0.36807323  0.66104689  0.05794305     0.12600
C810        C  0.42555384  0.61281419  0.07963386     0.62100
F811        F  0.41205481  0.65303494  0.37227809    -0.23100
F812        F  0.37412134  0.70378856  0.39740832    -0.20400
F813        F  0.35111084  0.63426348  0.89729614    -0.20100
F814        F  0.45285702  0.10895243  0.59331358    -0.20100
F815        F  0.41580657  0.57011240  0.10113994    -0.20400
F816        F  0.40983480  0.64184425  0.10745506    -0.23100
C817        C  0.14710418  0.59496294  0.01346808    -0.05900
C818        C  0.14784074  0.63786279  0.98840368     0.00000
C819        C  0.11746849  0.65229549  0.96776002    -0.08600
C820        C  0.08723330  0.62303376  0.97328498    -0.06000
C821        C  0.08642798  0.58057295  0.99886434     0.00000
C822        C  0.11666179  0.56596425  0.01943443    -0.08500
C823        C  0.11900795  0.51933682  0.54209336     0.61900
H824        H  0.17072217  0.58435617  0.02856764     0.12600
H825        H  0.06379822  0.63302909  0.95754157     0.12600
C826        C  0.11741709  0.69743569  0.93854133     0.62100
F827        F  0.15020854  0.51135054  0.06117031    -0.23100
F828        F  0.11484401  0.98960832  0.00490436    -0.20400
F829        F  0.09282782  0.51192443  0.58065826    -0.20100
F830        F  0.14820471  0.70271157  0.90532531    -0.20100
F831        F  0.11431724  0.73228616  0.47390482    -0.20400
F832        F  0.08692469  0.70234378  0.91775270    -0.23100
O833        O  0.95524439  0.45568349  0.04095201    -0.74600
O834        O  0.53752148  0.03498846  0.03738557    -0.74600
O835        O  0.96394282  0.04426141  0.04059966    -0.74700
O836        O  0.52801125  0.44600192  0.04096398    -0.74700
O837        O  0.53706556  0.45679873  0.46954155    -0.74700
O838        O  0.97244425  0.05628486  0.46915802    -0.74600
O839        O  0.54530152  0.04573211  0.46591781    -0.74600
O840        O  0.96421280  0.46683726  0.47016369    -0.74700
Ni841      Ni  0.99507334  0.49475511  0.04225949     1.25400
Ni842      Ni  0.50465467  0.00759894  0.46508792     1.25400
C843        C  0.94585638  0.44971984  0.50835952     0.87600
C844        C  0.55489558  0.05191929  0.50278042     0.87500
C845        C  0.95727961  0.06579936  0.00339465     0.87500
C846        C  0.54413356  0.43472270  0.00393802     0.87700
O847        O  0.96104776  0.45129001  0.29087580    -0.74600
O848        O  0.53279615  0.04449224  0.27370256    -0.74600
O849        O  0.95868805  0.03843356  0.28287577    -0.74700
O850        O  0.53478440  0.45593429  0.28583760    -0.74700
O851        O  0.54217406  0.45705116  0.21164614    -0.74700
O852        O  0.96382514  0.04257860  0.20849875    -0.74600
O853        O  0.53796387  0.04870660  0.19965938    -0.74600
O854        O  0.96864908  0.45261692  0.21707151    -0.74700
Ni855      Ni  0.99691347  0.49827813  0.28461826     1.25400
Ni856      Ni  0.50274836  0.00109805  0.20603599     1.25400
C857        C  0.95252962  0.43655545  0.25692011     0.87600
C858        C  0.54762149  0.06202512  0.23369857     0.87500
C859        C  0.94817158  0.05352644  0.24573164     0.87500
C860        C  0.55096399  0.44282696  0.25002616     0.87700
O861        O  0.68622109  0.32569899  0.04327367    -0.81100
O862        O  0.82305287  0.20698711  0.02203002    -0.65700
O863        O  0.75041141  0.29354319  0.49950486    -1.12400
C864        C  0.68240795  0.16553511  0.48745437     1.05800
O865        O  0.81630740  0.17740715  0.46503664    -0.79000
O866        O  0.76378406  0.20207216  0.41534911    -0.66500
Ni867      Ni  0.73835858  0.33669714  0.03593546     1.34900
C868        C  0.74838118  0.23824957  0.40388158     0.84600
O869        O  0.82296694  0.29526115  0.01277309    -0.79500
O870        O  0.78924645  0.35324191  0.03027677    -0.89800
C871        C  0.83464357  0.18359030  0.49524552     0.84100
O872        O  0.73803972  0.29986375  0.09285992    -0.68000
O873        O  0.71339652  0.14782295  0.47766844    -0.87300
C874        C  0.75277937  0.26321812  0.10423100     0.85000
C875        C  0.81990679  0.33493999  0.02033672     1.06500
H876        H  0.74237062  0.19187109  0.03855984     0.38300
O877        O  0.75071649  0.20821653  0.00877044    -1.09900
O878        O  0.72850051  0.25869060  0.43205868    -0.66600
Ni879      Ni  0.71403220  0.25034987  0.49692094     1.26300
O880        O  0.77262746  0.24277363  0.07613867    -0.66800
O881        O  0.67882773  0.20512307  0.49551692    -0.79100
C882        C  0.66736660  0.31909672  0.01375911     0.84400
O883        O  0.67761833  0.29399261  0.48733955    -0.66300
Ni884      Ni  0.76414064  0.16535006  0.47218999     1.27400
Ni885      Ni  0.78728741  0.25090263  0.01154250     1.26100
H886        H  0.75871073  0.30969206  0.46962007     0.38900
O887        O  0.69172127  0.32823816  0.29597196    -0.81100
O888        O  0.81675797  0.19565452  0.27156884    -0.65700
O889        O  0.75236292  0.29060121  0.24929268    -1.12400
C890        C  0.67175021  0.17780576  0.22975534     1.05800
O891        O  0.80514298  0.16380205  0.21491123    -0.79000
O892        O  0.76008181  0.20555340  0.16285537    -0.66500
Ni893      Ni  0.74420644  0.33419397  0.28816443     1.34900
C894        C  0.74601167  0.24275152  0.15219335     0.84600
O895        O  0.82454167  0.28344904  0.26394830    -0.79500
O896        O  0.79610572  0.34500163  0.28208183    -0.89800
C897        C  0.82486370  0.16876945  0.24409095     0.84100
O898        O  0.74239273  0.29619867  0.34464221    -0.68000
O899        O  0.70103040  0.15798659  0.21680941    -0.87300
C900        C  0.75410166  0.25764383  0.35551673     0.85000
C901        C  0.82485924  0.32327539  0.27157248     1.06500
H902        H  0.73513838  0.18992357  0.28757900     0.38300
O903        O  0.74453716  0.20638393  0.25808434    -1.09900
O904        O  0.72585507  0.26248809  0.18071558    -0.66600
Ni905      Ni  0.71189043  0.25355233  0.24574051     1.26300
O906        O  0.77072621  0.23523640  0.32677965    -0.66800
O907        O  0.67175359  0.21491710  0.24362838    -0.79100
C908        C  0.67346813  0.32867421  0.26437478     0.84400
O909        O  0.68083479  0.30250283  0.23603750    -0.66300
Ni910      Ni  0.75274567  0.16419470  0.21748711     1.27400
Ni911      Ni  0.78493724  0.24391297  0.26186509     1.26100
H912        H  0.76178569  0.30653154  0.21966952     0.38900
C913        C  0.61053487  0.34196847  0.24956249    -0.05900
C914        C  0.64215127  0.35839037  0.26178798     0.00000
C915        C  0.64364929  0.40296789  0.26947930    -0.08600
C916        C  0.61295958  0.42924591  0.26527447    -0.06000
C917        C  0.58157838  0.41271458  0.25314310     0.00000
C918        C  0.57988651  0.36848651  0.24542175    -0.08500
C919        C  0.54544488  0.34923697  0.23441128     0.61900
H920        H  0.60988180  0.30793021  0.24377310     0.12600
H921        H  0.61322865  0.46329742  0.27114824     0.12600
C922        C  0.67770767  0.42350940  0.28043205     0.62100
F923        F  0.53807609  0.37201269  0.19419368    -0.23100
F924        F  0.51619855  0.35299693  0.26822809    -0.20400
F925        F  0.54886531  0.30481709  0.23048759    -0.20100
F926        F  0.70788216  0.41713316  0.24880672    -0.20100
F927        F  0.68337175  0.40434460  0.32276506    -0.20400
F928        F  0.67459395  0.46873558  0.28018157    -0.23100
C929        C  0.91008770  0.39465402  0.22321102    -0.05900
C930        C  0.92244039  0.40233910  0.26252610     0.00000
C931        C  0.90452065  0.37899229  0.30483209    -0.08600
C932        C  0.87349361  0.35188148  0.30591306    -0.06000
C933        C  0.86036596  0.34662260  0.26667235     0.00000
C934        C  0.87946437  0.36735992  0.22437375    -0.08500
C935        C  0.86870966  0.36326700  0.17930095     0.61900
H936        H  0.92375614  0.41135824  0.19064994     0.12600
H937        H  0.85841219  0.33541325  0.33778163     0.12600
C938        C  0.91732442  0.38235912  0.34888435     0.62100
F939        F  0.89758945  0.34590351  0.15305903    -0.23100
F940        F  0.86168115  0.40492875  0.15762374    -0.20400
F941        F  0.83816823  0.33635244  0.18264670    -0.20100
F942        F  0.95421387  0.37335967  0.34523705    -0.20100
F943        F  0.89880438  0.35231799  0.38431077    -0.20400
F944        F  0.91124147  0.42442744  0.35944195    -0.23100
C945        C  0.92195127  0.12787710  0.24801472    -0.05900
C946        C  0.91665583  0.08285483  0.24602649     0.00000
C947        C  0.88148356  0.06627987  0.24429586    -0.08600
C948        C  0.85247743  0.09576394  0.24397698    -0.06000
C949        C  0.85745089  0.14091108  0.24588026     0.00000
C950        C  0.89279160  0.15761744  0.24770151    -0.08500
C951        C  0.90012570  0.20660661  0.24720363     0.61900
H952        H  0.94925990  0.13956862  0.24927973     0.12600
H953        H  0.82530367  0.08357950  0.24276336     0.12600
C954        C  0.87449676  0.01736520  0.24408153     0.62100
F955        F  0.93693705  0.21594194  0.24538334    -0.23100
F956        F  0.88111630  0.21958978  0.28577542    -0.20400
F957        F  0.88922082  0.23127045  0.20986610    -0.20100
F958        F  0.88280412  0.99284963  0.28300576    -0.20100
F959        F  0.89607427  0.00418899  0.20718083    -0.20400
F960        F  0.83829988  0.00820039  0.24213286    -0.23100
C961        C  0.57793434  0.11981007  0.26442186    -0.05900
C962        C  0.57676117  0.09735964  0.22783987     0.00000
C963        C  0.60480954  0.10681075  0.18923368    -0.08600
C964        C  0.63409420  0.13566771  0.19055430    -0.06000
C965        C  0.63643418  0.15539764  0.22846570     0.00000
C966        C  0.60726506  0.14856747  0.26562398    -0.08500
C967        C  0.60770820  0.16960486  0.30736732     0.61900
H968        H  0.55595274  0.11359960  0.29307017     0.12600
H969        H  0.65641370  0.14197393  0.16227221     0.12600
C970        C  0.60531501  0.08540624  0.14747449     0.62100
F971        F  0.57813610  0.15536471  0.34090370    -0.23100
F972        F  0.60624637  0.21520836  0.29648827    -0.20400
F973        F  0.63930076  0.15861316  0.32457770    -0.20100
F974        F  0.57457778  0.09702550  0.12860736    -0.20100
F975        F  0.60620799  0.03977066  0.15876680    -0.20400
F976        F  0.63566338  0.09893215  0.11489309    -0.23100
C977        C  0.57944502  0.37931310  0.04733600    -0.05900
C978        C  0.57191639  0.39889101  0.00497057     0.00000
C979        C  0.59273650  0.38565215  0.96561199    -0.08600
C980        C  0.62248813  0.35747760  0.97039881    -0.06000
C981        C  0.63197339  0.34183755  0.01251319     0.00000
C982        C  0.60878528  0.35061682  0.05185658    -0.08500
C983        C  0.61499110  0.33048402  0.09868647     0.61900
H984        H  0.56307339  0.38796062  0.07744481     0.12600
H985        H  0.63993288  0.34929344  0.94077956     0.12600
C986        C  0.58138349  0.39882325  0.42255757     0.62100
F987        F  0.64286096  0.35366968  0.11051480    -0.23100
F988        F  0.62406222  0.28636420  0.09998590    -0.20400
F989        F  0.58817259  0.34324414  0.63486773    -0.20100
F990        F  0.60597286  0.38032734  0.88657303    -0.20100
F991        F  0.59792364  0.96359927  0.41294202    -0.20400
F992        F  0.54456733  0.39045228  0.42350439    -0.23100
C993        C  0.91426877  0.37671317  0.03033071    -0.05900
C994        C  0.91492366  0.41939559  0.00525031     0.00000
C995        C  0.88215211  0.43734529  0.49388478    -0.08600
C996        C  0.85431361  0.40515204  0.99040198    -0.06000
C997        C  0.85354895  0.36231082  0.01549386     0.00000
C998        C  0.88430789  0.34724628  0.03505272    -0.08500
C999        C  0.88548775  0.30075163  0.06125180     0.61900
H1000       H  0.93780673  0.36649531  0.04577651     0.12600
H1001       H  0.82743398  0.42029951  0.48642869     0.12600
C1002       C  0.87989471  0.48553871  0.47263712     0.62100
F1003       F  0.91634117  0.29499066  0.08126932    -0.23100
F1004       F  0.88622095  0.26997329  0.03252707    -0.20400
F1005       F  0.85502438  0.29259743  0.09478020    -0.20100
F1006       F  0.91175609  0.48406657  0.91913001    -0.20100
F1007       F  0.88692375  0.51288477  0.50227117    -0.20400
F1008       F  0.84560132  0.49531194  0.46207882    -0.23100
C1009       C  0.92278033  0.12334099  0.46355679    -0.05900
C1010       C  0.92935069  0.10280817  0.50609560    -0.00400
C1011       C  0.90837360  0.11618008  0.54517058    -0.08600
C1012       C  0.87872270  0.14456167  0.53990794    -0.06000
C1013       C  0.86996623  0.16076355  0.49740978     0.00000
C1014       C  0.89401707  0.15267931  0.45846797    -0.08500
C1015       C  0.88974619  0.17469406  0.41144384     0.61900
H1016       H  0.93959955  0.11515403  0.43353993     0.12600
H1017       H  0.86093344  0.15258326  0.56935468     0.12600
C1018       C  0.91634565  0.10069354  0.59229723     0.62100
F1019       F  0.91141029  0.15355984  0.87486176    -0.23100
F1020       F  0.87676165  0.20655694  0.90130611    -0.20400
F1021       F  0.86196325  0.15353279  0.39727770    -0.20100
F1022       F  0.96314516  0.61899727  0.07376750    -0.20100
F1023       F  0.90820274  0.05583369  0.60501597    -0.20400
F1024       F  0.89571559  0.12272226  0.62380850    -0.23100
C1025       C  0.64881216  0.09375128  0.51377849    -0.05900
C1026       C  0.64899031  0.13763182  0.49112617     0.00000
C1027       C  0.61795008  0.15311541  0.47230633    -0.08600
C1028       C  0.58765349  0.12396717  0.47729626    -0.06000
C1029       C  0.58728565  0.08058417  0.50077531     0.00000
C1030       C  0.61833968  0.06482525  0.51913280    -0.08500
C1031       C  0.62162811  0.01682973  0.03474851     0.61900
H1032       H  0.67280307  0.08236295  0.52769293     0.12600
H1033       H  0.56370705  0.13490909  0.46304017     0.12600
C1034       C  0.61708552  0.19952319  0.44579598     0.62100
F1035       F  0.65352082  0.00797634  0.55528576    -0.23100
F1036       F  0.61279273  0.49003629  0.51394036    -0.20400
F1037       F  0.59618736  0.00741240  0.07386794    -0.20100
F1038       F  0.64742561  0.20692413  0.41199667    -0.20100
F1039       F  0.61666110  0.23161207  0.97232125    -0.20400
F1040       F  0.58615017  0.20551930  0.42596936    -0.23100
O1041       O  0.95471155  0.45722263  0.54518560    -0.74600
O1042       O  0.53682139  0.03387933  0.54088322    -0.74600
O1043       O  0.96332000  0.04432364  0.54377090    -0.74700
O1044       O  0.52764985  0.44765267  0.54408389    -0.74700
O1045       O  0.53769483  0.45544256  0.96642063    -0.74700
O1046       O  0.97317739  0.05536661  0.96596566    -0.74600
O1047       O  0.54599240  0.04570116  0.96238765    -0.74600
O1048       O  0.96520492  0.46613510  0.96593882    -0.74700
Ni1049     Ni  0.99474756  0.49638106  0.54561448     1.25400
Ni1050     Ni  0.50563903  0.00698098  0.96221625     1.25400
C1051       C  0.94667065  0.44856299  0.00384498     0.87600
C1052       C  0.55545917  0.05261531  0.99906825     0.87500
C1053       C  0.95670997  0.06642886  0.50678579     0.87500
C1054       C  0.54366795  0.43624111  0.50706744     0.87700
O1055       O  0.95925236  0.45055243  0.79147633    -0.74600
O1056       O  0.53148641  0.04382928  0.77654501    -0.74600
O1057       O  0.95732415  0.03937617  0.78464195    -0.74700
O1058       O  0.53289077  0.45503551  0.78584894    -0.74700
O1059       O  0.53994813  0.45702447  0.71154263    -0.74700
O1060       O  0.96287751  0.04258670  0.71032014    -0.74600
O1061       O  0.53697354  0.04764670  0.70250247    -0.74600
O1062       O  0.96644085  0.45254813  0.71761007    -0.74700
Ni1063     Ni  0.99505411  0.49744945  0.78547136     1.25400
Ni1064     Ni  0.50138355  0.00057710  0.70884445     1.25400
C1065       C  0.95064867  0.43606784  0.75744945     0.87600
C1066       C  0.54667006  0.06091732  0.73651534     0.87500
C1067       C  0.94708824  0.05405840  0.74723932     0.87500
C1068       C  0.54891554  0.44234493  0.74975132     0.87700
O1069       O  0.68578598  0.32538612  0.54531040    -0.81100
O1070       O  0.82294762  0.20853113  0.52369663    -0.65700
O1071       O  0.75083809  0.29276412  0.99825702    -1.12400
C1072       C  0.68224810  0.16602645  0.98503781     1.05800
O1073       O  0.81560102  0.17723687  0.96302518    -0.79000
O1074       O  0.76343373  0.20198382  0.91385968    -0.66500
Ni1075     Ni  0.73771021  0.33721156  0.53752086     1.34900
C1076       C  0.74800155  0.23817430  0.90280965     0.84600
O1077       O  0.82251878  0.29667190  0.51429714    -0.79500
O1078       O  0.78842840  0.35416241  0.53213667    -0.89800
C1079       C  0.83433948  0.18241669  0.99301646     0.84100
O1080       O  0.73752962  0.30044802  0.59423992    -0.68000
O1081       O  0.71312045  0.14810195  0.97541413    -0.87300
C1082       C  0.75229287  0.26384321  0.60542440     0.85000
C1083       C  0.81924760  0.33615582  0.52239938     1.06500
H1084       H  0.74255210  0.19272054  0.53983204     0.38300
O1085       O  0.75086516  0.20897209  0.50999248    -1.09900
O1086       O  0.72844418  0.25851579  0.93114098    -0.66600
Ni1087     Ni  0.71421947  0.24997698  0.99566689     1.26300
O1088       O  0.77233882  0.24367046  0.57731710    -0.66800
O1089       O  0.67874001  0.20533146  0.99384017    -0.79100
C1090       C  0.66664065  0.31914217  0.51606195     0.84400
O1091       O  0.67846143  0.29378402  0.98540945    -0.66300
Ni1092     Ni  0.76371795  0.16507120  0.97039698     1.27400
Ni1093     Ni  0.78710641  0.25203530  0.51281536     1.26100
H1094       H  0.75925267  0.30882163  0.96835760     0.38900
O1095       O  0.69063427  0.33007379  0.79550435    -0.81100
O1096       O  0.81553472  0.19602662  0.77137223    -0.65700
O1097       O  0.75103637  0.29092810  0.74920559    -1.12400
C1098       C  0.67040087  0.17827383  0.73022783     1.05800
O1099       O  0.80336950  0.16235620  0.71622448    -0.79000
O1100       O  0.75972897  0.20622051  0.66382713    -0.66500
Ni1101     Ni  0.74315784  0.33451190  0.78825948     1.34900
C1102       C  0.74520489  0.24309461  0.65314692     0.84600
O1103       O  0.82337536  0.28349669  0.76284945    -0.79500
O1104       O  0.79500168  0.34424813  0.78318465    -0.89800
C1105       C  0.82331363  0.16825692  0.74483972     0.84100
O1106       O  0.74062615  0.29586294  0.84428760    -0.68000
O1107       O  0.69970252  0.15913095  0.71617846    -0.87300
C1108       C  0.75321340  0.25774042  0.85482247     0.85000
C1109       C  0.82366787  0.32275915  0.77184661     1.06500
H1110       H  0.73404797  0.19011380  0.78816612     0.38300
O1111       O  0.74320777  0.20650500  0.75856437    -1.09900
O1112       O  0.72420535  0.26222542  0.68143303    -0.66600
Ni1113     Ni  0.71049653  0.25371557  0.74639017     1.26300
O1114       O  0.77030041  0.23583650  0.82605650    -0.66800
O1115       O  0.67033949  0.21493616  0.74494299    -0.79100
C1116       C  0.67220179  0.32953470  0.76422966     0.84400
O1117       O  0.67935472  0.30264300  0.73656520    -0.66300
Ni1118     Ni  0.75120846  0.16429636  0.71790517     1.27400
Ni1119     Ni  0.78372426  0.24414508  0.76139848     1.26100
H1120       H  0.76020743  0.30687422  0.71953073     0.38900
C1121       C  0.60823683  0.34107792  0.75292060    -0.05900
C1122       C  0.64075843  0.35898206  0.76139103     0.00000
C1123       C  0.64288133  0.40455199  0.76548593    -0.08600
C1124       C  0.61211809  0.43056132  0.76074204    -0.06000
C1125       C  0.57979903  0.41256301  0.75240283     0.00000
C1126       C  0.57728163  0.36713789  0.74907587    -0.08500
C1127       C  0.54175244  0.34623527  0.74306542     0.61900
H1128       H  0.60709534  0.30622728  0.75009938     0.12600
H1129       H  0.61290698  0.46541782  0.76371419     0.12600
C1130       C  0.67751370  0.42620021  0.77363592     0.62100
F1131       F  0.53210259  0.36569268  0.70282134    -0.23100
F1132       F  0.51424784  0.35250238  0.77803326    -0.20400
F1133       F  0.54469680  0.30105862  0.74283076    -0.20100
F1134       F  0.70695720  0.41808167  0.74180987    -0.20100
F1135       F  0.68421004  0.40946544  0.81618039    -0.20400
F1136       F  0.67461761  0.47174970  0.77078837    -0.23100
C1137       C  0.90874829  0.39368900  0.72359933    -0.05900
C1138       C  0.92089022  0.40158120  0.76299204     0.00000
C1139       C  0.90293475  0.37836641  0.80533512    -0.08600
C1140       C  0.87212057  0.35103780  0.80634935    -0.06000
C1141       C  0.85902856  0.34595794  0.76706876     0.00000
C1142       C  0.87792268  0.36681148  0.72477166    -0.08500
C1143       C  0.86642861  0.36366915  0.67981910     0.61900
H1144       H  0.92246203  0.41031143  0.69102883     0.12600
H1145       H  0.85703008  0.33449920  0.83818548     0.12600
C1146       C  0.91518151  0.38252383  0.84952812     0.62100
F1147       F  0.89428423  0.34499336  0.65323401    -0.23100
F1148       F  0.86064007  0.40585682  0.65833325    -0.20400
F1149       F  0.83484047  0.33852923  0.68337186    -0.20100
F1150       F  0.95205012  0.37370063  0.84672209    -0.20100
F1151       F  0.89637792  0.35298100  0.88518129    -0.20400
F1152       F  0.90879534  0.42483298  0.85915904    -0.23100
C1153       C  0.92029754  0.12797439  0.75036757    -0.05900
C1154       C  0.91552885  0.08320392  0.74699114     0.00000
C1155       C  0.88067500  0.06649533  0.74407445    -0.08600
C1156       C  0.85149344  0.09566292  0.74379546    -0.06000
C1157       C  0.85595812  0.14060038  0.74694139     0.00000
C1158       C  0.89093179  0.15738370  0.75016934    -0.08500
C1159       C  0.89763899  0.20612505  0.75156833     0.61900
H1160       H  0.94732088  0.13970825  0.75281200     0.12600
H1161       H  0.82456802  0.08335571  0.74167348     0.12600
C1162       C  0.87411733  0.01769232  0.74287201     0.62100
F1163       F  0.93438228  0.21595797  0.74955271    -0.23100
F1164       F  0.87870750  0.21721326  0.79113172    -0.20400
F1165       F  0.88610577  0.23192416  0.71528370    -0.20100
F1166       F  0.88217507  0.99273890  0.78167811    -0.20100
F1167       F  0.89614592  0.00526175  0.70589099    -0.20400
F1168       F  0.83809699  0.00830271  0.74028275    -0.23100
C1169       C  0.57717153  0.11912862  0.76645068    -0.05900
C1170       C  0.57609309  0.09591741  0.73040202     0.00000
C1171       C  0.60433688  0.10454156  0.69190675    -0.08600
C1172       C  0.63308624  0.13449892  0.69226715    -0.06000
C1173       C  0.63523011  0.15529263  0.72954534     0.00000
C1174       C  0.60639158  0.14827985  0.76707166    -0.08500
C1175       C  0.60726325  0.16926211  0.80875522     0.61900
H1176       H  0.55526376  0.11313620  0.79519568     0.12600
H1177       H  0.65528933  0.14066442  0.66383580     0.12600
C1178       C  0.60584406  0.08083648  0.65148721     0.62100
F1179       F  0.57787564  0.15510636  0.84256600    -0.23100
F1180       F  0.60591535  0.21488444  0.79801630    -0.20400
F1181       F  0.63901392  0.15802872  0.82553087    -0.20100
F1182       F  0.57581105  0.09140996  0.63088434    -0.20100
F1183       F  0.60638657  0.03546831  0.66521804    -0.20400
F1184       F  0.63688721  0.09283238  0.61953010    -0.23100
C1185       C  0.58057547  0.38309166  0.55042641    -0.05900
C1186       C  0.57151422  0.40042659  0.50826285     0.00000
C1187       C  0.59077792  0.38494183  0.46928301    -0.08600
C1188       C  0.62027602  0.35624513  0.47396093    -0.06000
C1189       C  0.63126036  0.34247645  0.51561951     0.00000
C1190       C  0.60981162  0.35425271  0.55499464    -0.08500
C1191       C  0.61755570  0.33724403  0.60198615     0.61900
H1192       H  0.56552423  0.39378549  0.58026854     0.12600
H1193       H  0.63640313  0.34619863  0.44439362     0.12600
C1194       C  0.58480953  0.40142878  0.91843853     0.62100
F1195       F  0.64753479  0.35988442  0.60964725    -0.23100
F1196       F  0.62418951  0.29228583  0.60664232    -0.20400
F1197       F  0.58382762  0.33205800  0.13044137    -0.20100
F1198       F  0.60095112  0.37570465  0.39125065    -0.20100
F1199       F  0.60118145  0.96739877  0.91362922    -0.20400
F1200       F  0.54849069  0.39241378  0.91705126    -0.23100
C1201       C  0.91470052  0.37663781  0.53070030    -0.05900
C1202       C  0.91381712  0.42094156  0.51025467     0.00000
C1203       C  0.88486899  0.43393180  0.98423684    -0.08600
C1204       C  0.85195621  0.40833615  0.49875223    -0.06000
C1205       C  0.85274772  0.36367469  0.51872821     0.00000
C1206       C  0.88476982  0.34720758  0.53474887    -0.08500
C1207       C  0.88743807  0.29924799  0.55652742     0.61900
H1208       H  0.93938194  0.36517962  0.54296811     0.12600
H1209       H  0.83076018  0.41573049  0.97514999     0.12600
C1210       C  0.88456688  0.47998187  0.95669111     0.62100
F1211       F  0.91890562  0.29237751  0.57517536    -0.23100
F1212       F  0.88825416  0.27177013  0.52456091    -0.20400
F1213       F  0.85772150  0.28756985  0.59051918    -0.20100
F1214       F  0.90528127  0.49463320  0.43340499    -0.20100
F1215       F  0.89046877  0.51169310  0.98245371    -0.20400
F1216       F  0.85148320  0.48841946  0.94213091    -0.23100
C1217       C  0.91958137  0.11713899  0.95998654    -0.05900
C1218       C  0.92947201  0.10158278  0.00213209    -0.00400
C1219       C  0.91140063  0.11914583  0.04034940    -0.08600
C1220       C  0.88158495  0.14734761  0.03535488    -0.06000
C1221       C  0.86965541  0.15906854  0.99383538     0.00000
C1222       C  0.89051764  0.14589318  0.95486579    -0.08500
C1223       C  0.88252047  0.16137939  0.90766122     0.61900
H1224       H  0.93387869  0.10513825  0.93049473     0.12600
H1225       H  0.86620148  0.15883379  0.06458320     0.12600
C1226       C  0.92286281  0.10857292  0.08626669     0.62100
F1227       F  0.92161577  0.17276328  0.38076352    -0.23100
F1228       F  0.88178003  0.21900905  0.41122757    -0.20400
F1229       F  0.85195696  0.13890372  0.90136361    -0.20100
F1230       F  0.95592157  0.61651039  0.58367013    -0.20100
F1231       F  0.91484737  0.06453752  0.10433458    -0.20400
F1232       F  0.90479662  0.13415903  0.11630440    -0.23100
C1233       C  0.64935922  0.09410110  0.00905403    -0.05900
C1234       C  0.64898910  0.13840331  0.98792064     0.00000
C1235       C  0.61782520  0.15423980  0.96958173    -0.08600
C1236       C  0.58757785  0.12507852  0.97440700    -0.06000
C1237       C  0.58773814  0.08129090  0.99671520     0.00000
C1238       C  0.61923775  0.06503775  0.01365031    -0.08500
C1239       C  0.61984933  0.01723494  0.54260271     0.61900
H1240       H  0.67354785  0.08243521  0.02236964     0.12600
H1241       H  0.56335238  0.13625714  0.96089231     0.12600
C1242       C  0.61683404  0.20089275  0.94364180     0.62100
F1243       F  0.65593226  0.00717986  0.04534793    -0.23100
F1244       F  0.61282342  0.48850224  0.01858992    -0.20400
F1245       F  0.59340034  0.00959397  0.58090913    -0.20100
F1246       F  0.64713009  0.20873518  0.90981269    -0.20100
F1247       F  0.61693431  0.23065040  0.47404445    -0.20400
F1248       F  0.58586180  0.20706398  0.92389302    -0.23100
O1249       O  0.95657714  0.95558944  0.04187641    -0.74600
O1250       O  0.53574138  0.53443287  0.03839039    -0.74600
O1251       O  0.96286191  0.54424873  0.03779258    -0.74700
O1252       O  0.53016095  0.94700242  0.03838353    -0.74700
O1253       O  0.53629916  0.95802006  0.46637174    -0.74700
O1254       O  0.97283723  0.55489747  0.46675329    -0.74600
O1255       O  0.54531329  0.54510116  0.46596505    -0.74600
O1256       O  0.96346212  0.96874193  0.46918744    -0.74700
Ni1257     Ni  0.99669962  0.99505050  0.04231181     1.25400
Ni1258     Ni  0.50520965  0.50619812  0.46549136     1.25400
C1259       C  0.94556113  0.95007285  0.50704468     0.87600
C1260       C  0.55394965  0.55302904  0.50274578     0.87500
C1261       C  0.95748613  0.56533666  0.99978804     0.87500
C1262       C  0.54573159  0.93699519  0.00052815     0.87700
O1263       O  0.96195293  0.94906589  0.29176002    -0.74600
O1264       O  0.53329467  0.54521960  0.27261077    -0.74600
O1265       O  0.95953341  0.54089686  0.27862122    -0.74700
O1266       O  0.53604408  0.95529560  0.28309355    -0.74700
O1267       O  0.54116595  0.95909116  0.20878123    -0.74700
O1268       O  0.96648938  0.54214885  0.20444504    -0.74600
O1269       O  0.54030716  0.54664557  0.19876869    -0.74600
O1270       O  0.96726276  0.95335054  0.21780256    -0.74700
Ni1271     Ni  0.99721104  0.99667471  0.28548554     1.25400
Ni1272     Ni  0.50467156  0.49969536  0.20532694     1.25400
C1273       C  0.95230698  0.93575184  0.25771810     0.87600
C1274       C  0.54919277  0.56115991  0.23257278     0.87500
C1275       C  0.95020109  0.55482121  0.24054681     0.87500
C1276       C  0.55139657  0.94372644  0.24606148     0.87700
O1277       O  0.68755741  0.82663317  0.03888318    -0.81100
O1278       O  0.82370557  0.70588721  0.01636490    -0.65700
O1279       O  0.75078368  0.79387034  0.49351550    -1.12400
C1280       C  0.68096288  0.66683649  0.48365905     1.05800
O1281       O  0.81454077  0.67589063  0.45943456    -0.79000
O1282       O  0.76205892  0.70060468  0.41055204    -0.66500
Ni1283     Ni  0.73988855  0.83599495  0.03221650     1.34900
C1284       C  0.74750675  0.73728362  0.39889542     0.84600
O1285       O  0.82457651  0.79411774  0.00765757    -0.79500
O1286       O  0.79093607  0.85119074  0.02774473    -0.89800
C1287       C  0.83359544  0.68226265  0.48879459     0.84100
O1288       O  0.73873153  0.79802173  0.08845608    -0.68000
O1289       O  0.71154161  0.64826027  0.47409987    -0.87300
C1290       C  0.75398535  0.76170193  0.09957084     0.85000
C1291       C  0.82161387  0.83322559  0.01702138     1.06500
H1292       H  0.74280963  0.69170103  0.03465738     0.38300
O1293       O  0.75102971  0.70773277  0.00469763    -1.09900
O1294       O  0.72838809  0.75855867  0.42681456    -0.66600
Ni1295     Ni  0.71398211  0.75114922  0.49138249     1.26300
O1296       O  0.77430631  0.74181630  0.07139829    -0.66800
O1297       O  0.67808285  0.70673620  0.49066694    -0.79100
C1298       C  0.66880527  0.82039140  0.00917077     0.84400
O1299       O  0.67840801  0.79512740  0.48058755    -0.66300
Ni1300     Ni  0.76240898  0.66473461  0.46771023     1.27400
Ni1301     Ni  0.78819700  0.75011055  0.00668436     1.26100
H1302       H  0.75905902  0.80994062  0.46358725     0.38900
O1303       O  0.69231009  0.82905155  0.28920506    -0.81100
O1304       O  0.81766650  0.69500571  0.26753861    -0.65700
O1305       O  0.75362272  0.79045156  0.24453019    -1.12400
C1306       C  0.67328172  0.67707587  0.22596082     1.05800
O1307       O  0.80656095  0.66451759  0.20992942    -0.79000
O1308       O  0.76047150  0.70361836  0.15822432    -0.66500
Ni1309     Ni  0.74475938  0.83366403  0.28374099     1.34900
C1310       C  0.74725274  0.74129777  0.14742040     0.84600
O1311       O  0.82544137  0.78270817  0.26054636    -0.79500
O1312       O  0.79651077  0.84334397  0.28039770    -0.89800
C1313       C  0.82612159  0.66879392  0.23943034     0.84100
O1314       O  0.74106254  0.79468387  0.33972650    -0.68000
O1315       O  0.70239335  0.65637955  0.21433420    -0.87300
C1316       C  0.75354401  0.75659120  0.35070942     0.85000
C1317       C  0.82542188  0.82195877  0.26975151     1.06500
H1318       H  0.73594414  0.69007218  0.28303077     0.38300
O1319       O  0.74565453  0.70626744  0.25351111    -1.09900
O1320       O  0.72794892  0.76190728  0.17577892    -0.66600
Ni1321     Ni  0.71327182  0.75354509  0.24042171     1.26300
O1322       O  0.77139998  0.73478732  0.32230784    -0.66800
O1323       O  0.67334528  0.71505675  0.23792316    -0.79100
C1324       C  0.67476605  0.82942889  0.25696335     0.84400
O1325       O  0.68242549  0.80263210  0.22932057    -0.66300
Ni1326     Ni  0.75411522  0.66345789  0.21365966     1.27400
Ni1327     Ni  0.78600375  0.74349683  0.25760450     1.26100
H1328       H  0.76330237  0.80648176  0.21506118     0.38900
C1329       C  0.61243003  0.84407249  0.23961478    -0.05900
C1330       C  0.64376377  0.85970779  0.25317521     0.00000
C1331       C  0.64506745  0.90392241  0.26201703    -0.08600
C1332       C  0.61414284  0.93011244  0.25897476    -0.06000
C1333       C  0.58270073  0.91407446  0.24652809     0.00000
C1334       C  0.58158045  0.87059870  0.23638009    -0.08500
C1335       C  0.54743778  0.85190474  0.22409940     0.61900
H1336       H  0.61198732  0.81046454  0.23253958     0.12600
H1337       H  0.61419821  0.96365265  0.26635243     0.12600
C1338       C  0.67917717  0.92421957  0.27310752     0.62100
F1339       F  0.53993419  0.87652041  0.18478287    -0.23100
F1340       F  0.51804450  0.85357519  0.25832954    -0.20400
F1341       F  0.55144211  0.80818613  0.21765887    -0.20100
F1342       F  0.70934315  0.91779866  0.24148565    -0.20100
F1343       F  0.68481142  0.90492306  0.31540098    -0.20400
F1344       F  0.67618670  0.96943880  0.27294379    -0.23100
C1345       C  0.91174261  0.89169213  0.22365510    -0.05900
C1346       C  0.92237514  0.90126948  0.26331498     0.00000
C1347       C  0.90255980  0.88007174  0.30562581    -0.08600
C1348       C  0.87202359  0.85240189  0.30594901    -0.06000
C1349       C  0.86071776  0.84527987  0.26613282     0.00000
C1350       C  0.88108720  0.86475716  0.22413971    -0.08500
C1351       C  0.87120526  0.86062283  0.17860655     0.61900
H1352       H  0.92662199  0.90698299  0.19117534     0.12600
H1353       H  0.85572808  0.83717813  0.33755936     0.12600
C1354       C  0.91237399  0.88687872  0.35045311     0.62100
F1355       F  0.90037246  0.84304315  0.15305181    -0.23100
F1356       F  0.86467956  0.90237135  0.15670135    -0.20400
F1357       F  0.84063973  0.83404096  0.18101165    -0.20100
F1358       F  0.94854183  0.87634011  0.35164166    -0.20100
F1359       F  0.89103523  0.86028401  0.38648153    -0.20400
F1360       F  0.90690811  0.93048266  0.35637220    -0.23100
C1361       C  0.92326011  0.62855010  0.24462900    -0.05900
C1362       C  0.91897747  0.58435446  0.23884171     0.00000
C1363       C  0.88451494  0.56809063  0.23396654    -0.08600
C1364       C  0.85520538  0.59712570  0.23428366    -0.06000
C1365       C  0.85905812  0.64137383  0.24036344     0.00000
C1366       C  0.89370949  0.65773892  0.24535722    -0.08500
C1367       C  0.89983718  0.70577163  0.25009093     0.61900
H1368       H  0.94996234  0.63989385  0.24873565     0.12600
H1369       H  0.82855010  0.58508463  0.23079187     0.12600
C1370       C  0.87835313  0.51964097  0.23079590     0.62100
F1371       F  0.93642774  0.71562941  0.24915538    -0.23100
F1372       F  0.88042396  0.71409658  0.29057509    -0.20400
F1373       F  0.88837600  0.73362114  0.21504157    -0.20100
F1374       F  0.88532065  0.49347267  0.26956390    -0.20100
F1375       F  0.90142194  0.50833531  0.19400373    -0.20400
F1376       F  0.84273192  0.51064608  0.22622542    -0.23100
C1377       C  0.57969989  0.61954682  0.26219216    -0.05900
C1378       C  0.57854352  0.59620581  0.22624554     0.00000
C1379       C  0.60654388  0.60501824  0.18750769    -0.08600
C1380       C  0.63568006  0.63423165  0.18803165    -0.06000
C1381       C  0.63800361  0.65474432  0.22530961     0.00000
C1382       C  0.60895300  0.64869463  0.26254154    -0.08500
C1383       C  0.60940082  0.67123505  0.30331341     0.61900
H1384       H  0.55776935  0.61387835  0.29092789     0.12600
H1385       H  0.65800942  0.64011240  0.15972240     0.12600
C1386       C  0.60744416  0.58236193  0.14657848     0.62100
F1387       F  0.57977988  0.65793093  0.33707857    -0.23100
F1388       F  0.60801832  0.71668519  0.29089219    -0.20400
F1389       F  0.64097136  0.66095475  0.32082665    -0.20100
F1390       F  0.57659319  0.59254774  0.12747795    -0.20100
F1391       F  0.60917314  0.53696523  0.15919302    -0.20400
F1392       F  0.63761588  0.59590739  0.11377320    -0.23100
C1393       C  0.57847081  0.87652783  0.04111060    -0.05900
C1394       C  0.57456491  0.90240665  0.99974664     0.00000
C1395       C  0.60005155  0.89689704  0.96038138    -0.08600
C1396       C  0.62927957  0.86779917  0.96492091    -0.06000
C1397       C  0.63436868  0.84481655  0.00680857     0.00000
C1398       C  0.60791514  0.84789892  0.04538779    -0.08500
C1399       C  0.61054242  0.82093118  0.09097137     0.61900
H1400       H  0.55884659  0.87992290  0.07086337     0.12600
H1401       H  0.64965342  0.86430982  0.93584869     0.12600
C1402       C  0.59279355  0.91840099  0.41507890     0.62100
F1403       F  0.63850215  0.83792761  0.10849385    -0.23100
F1404       F  0.61727181  0.77712233  0.08661435    -0.20400
F1405       F  0.57838734  0.82199585  0.62360078    -0.20100
F1406       F  0.62537625  0.91118428  0.88109680    -0.20100
F1407       F  0.58963618  0.44346982  0.40796288    -0.20400
F1408       F  0.55858436  0.90951867  0.40570085    -0.23100
C1409       C  0.91504083  0.87633015  0.03041746    -0.05900
C1410       C  0.91524701  0.91956403  0.00651360     0.00000
C1411       C  0.88409956  0.93548124  0.48589427    -0.08600
C1412       C  0.85542757  0.90419956  0.98960451    -0.06000
C1413       C  0.85513714  0.86081765  0.01331918     0.00000
C1414       C  0.88570196  0.84613031  0.03351031    -0.08500
C1415       C  0.88719974  0.79934773  0.05887195     0.61900
H1416       H  0.93846118  0.86623994  0.04614086     0.12600
H1417       H  0.83111627  0.91672570  0.47351254     0.12600
C1418       C  0.88343639  0.98210137  0.45965812     0.62100
F1419       F  0.91829504  0.79332790  0.07840728    -0.23100
F1420       F  0.88771671  0.76910078  0.02963490    -0.20400
F1421       F  0.85695688  0.79067450  0.09264455    -0.20100
F1422       F  0.91105152  0.98675890  0.92189156    -0.20100
F1423       F  0.88812270  0.01295592  0.48688195    -0.20400
F1424       F  0.85060594  0.99033291  0.44437851    -0.23100
C1425       C  0.91944586  0.61705242  0.45808227    -0.05900
C1426       C  0.92858791  0.60199574  0.50077668    -0.00400
C1427       C  0.90940999  0.61936983  0.53852596    -0.08600
C1428       C  0.87985196  0.64753469  0.53236037    -0.06000
C1429       C  0.86875688  0.65887946  0.49035289     0.00000
C1430       C  0.89019760  0.64534526  0.45197706    -0.08500
C1431       C  0.88222681  0.65924739  0.40455264     0.61900
H1432       H  0.93435241  0.60484690  0.42903120     0.12600
H1433       H  0.86380306  0.65906720  0.56114726     0.12600
C1434       C  0.91900921  0.60810984  0.58539676     0.62100
F1435       F  0.91037016  0.64928645  0.86940095    -0.23100
F1436       F  0.87551685  0.70263982  0.89475901    -0.20400
F1437       F  0.85305961  0.63413809  0.39837170    -0.20100
F1438       F  0.96002260  0.11711149  0.08222100    -0.20100
F1439       F  0.91053014  0.56394647  0.60247857    -0.20400
F1440       F  0.89977627  0.63322517  0.61507139    -0.23100
C1441       C  0.64756125  0.59569036  0.51172987    -0.05900
C1442       C  0.64728064  0.63938152  0.48883451     0.00000
C1443       C  0.61563329  0.65490895  0.47141461    -0.08600
C1444       C  0.58538792  0.62559139  0.47739221    -0.06000
C1445       C  0.58578509  0.58220075  0.50054650     0.00000
C1446       C  0.61715121  0.56670281  0.51818331    -0.08500
C1447       C  0.61740805  0.51939912  0.04579324     0.61900
H1448       H  0.67192805  0.58445004  0.52486582     0.12600
H1449       H  0.56098591  0.63628688  0.46402793     0.12600
C1450       C  0.61398799  0.70143466  0.44543923     0.62100
F1451       F  0.65286857  0.51051929  0.55440351    -0.23100
F1452       F  0.61380754  0.98839213  0.51389813    -0.20400
F1453       F  0.58959647  0.51351702  0.08271764    -0.20100
F1454       F  0.64367251  0.70942191  0.41079168    -0.20100
F1455       F  0.61720354  0.73052547  0.96457469    -0.20400
F1456       F  0.58245193  0.70723405  0.42678156    -0.23100
O1457       O  0.95506543  0.95596527  0.54410908    -0.74600
O1458       O  0.53552589  0.53608810  0.54096160    -0.74600
O1459       O  0.96251703  0.54585099  0.54134368    -0.74700
O1460       O  0.52844866  0.94603564  0.54089593    -0.74700
O1461       O  0.53769863  0.95778646  0.96385477    -0.74700
O1462       O  0.97422444  0.55412962  0.96313598    -0.74600
O1463       O  0.54646070  0.54354918  0.96341606    -0.74600
O1464       O  0.96467516  0.96758677  0.96695131    -0.74700
Ni1465     Ni  0.99556323  0.99462640  0.54516075     1.25400
Ni1466     Ni  0.50626114  0.50511872  0.96212336     1.25400
C1467       C  0.94701701  0.94909052  0.00502569     0.87600
C1468       C  0.55465402  0.55135713  0.00046519     0.87500
C1469       C  0.95641542  0.56635773  0.50344725     0.87500
C1470       C  0.54390279  0.93631921  0.50287416     0.87700
O1471       O  0.95915601  0.94990199  0.79439858    -0.74600
O1472       O  0.53153477  0.54434271  0.77362441    -0.74600
O1473       O  0.95752124  0.54009704  0.78042274    -0.74700
O1474       O  0.53310984  0.95438996  0.78714671    -0.74700
O1475       O  0.53926559  0.95806265  0.71269713    -0.74700
O1476       O  0.96377486  0.54201141  0.70620697    -0.74600
O1477       O  0.53778985  0.54668085  0.69969456    -0.74600
O1478       O  0.96552298  0.95337381  0.72042238    -0.74700
Ni1479     Ni  0.99509127  0.99677980  0.78832844     1.25400
Ni1480     Ni  0.50223094  0.49970803  0.70609751     1.25400
C1481       C  0.94993946  0.93633073  0.76022743     0.87600
C1482       C  0.54720643  0.56053536  0.73354940     0.87500
C1483       C  0.94776778  0.55433150  0.74265068     0.87500
C1484       C  0.54871325  0.94254070  0.75039865     0.87700
O1485       O  0.68609256  0.82744344  0.53826068    -0.81100
O1486       O  0.82274958  0.70782271  0.51701134    -0.65700
O1487       O  0.75177055  0.79234353  0.99398924    -1.12400
C1488       C  0.68147192  0.66544309  0.98367374     1.05800
O1489       O  0.81517393  0.67533644  0.95813348    -0.79000
O1490       O  0.76194497  0.70012010  0.91004121    -0.66500
Ni1491     Ni  0.73834364  0.83754005  0.53159401     1.34900
C1492       C  0.74721330  0.73685098  0.89895251     0.84600
O1493       O  0.82323008  0.79616209  0.50753466    -0.79500
O1494       O  0.78928941  0.85326952  0.52708078    -0.89800
C1495       C  0.83452420  0.68109253  0.98741651     0.84100
O1496       O  0.73718259  0.80008961  0.58824757    -0.68000
O1497       O  0.71208561  0.64698269  0.97392091    -0.87300
C1498       C  0.75253555  0.76389679  0.59957334     0.85000
C1499       C  0.82004125  0.83534634  0.51662525     1.06500
H1500       H  0.74191771  0.69347336  0.53490133     0.38300
O1501       O  0.75027829  0.70921791  0.50485267    -1.09900
O1502       O  0.72849499  0.75785440  0.92736794    -0.66600
Ni1503     Ni  0.71464266  0.74981031  0.99191666     1.26300
O1504       O  0.77303414  0.74406673  0.57146887    -0.66800
O1505       O  0.67853059  0.70533339  0.99099868    -0.79100
C1506       C  0.66725948  0.82048261  0.50887457     0.84400
O1507       O  0.67921178  0.79414505  0.98152838    -0.66300
Ni1508     Ni  0.76299449  0.66378844  0.96692867     1.27400
Ni1509     Ni  0.78718957  0.75186361  0.50673605     1.26100
H1510       H  0.75995483  0.80848298  0.96407268     0.38900
O1511       O  0.68968129  0.82859024  0.79120090    -0.81100
O1512       O  0.81634535  0.69670992  0.76676156    -0.65700
O1513       O  0.75107632  0.79109871  0.74495320    -1.12400
C1514       C  0.67165781  0.67730460  0.72536117     1.05800
O1515       O  0.80503806  0.66449241  0.71022032    -0.79000
O1516       O  0.76008575  0.70626992  0.65810018    -0.66500
Ni1517     Ni  0.74217055  0.83392616  0.78471914     1.34900
C1518       C  0.74569903  0.74326610  0.64748684     0.84600
O1519       O  0.82319060  0.78429861  0.76016015    -0.79500
O1520       O  0.79389122  0.84452657  0.78039309    -0.89800
C1521       C  0.82456577  0.66962428  0.73952271     0.84100
O1522       O  0.73963847  0.79464983  0.84048504    -0.68000
O1523       O  0.70109388  0.65806445  0.71184114    -0.87300
C1524       C  0.75245809  0.75659941  0.85087817     0.85000
C1525       C  0.82294681  0.82351729  0.76944235     1.06500
H1526       H  0.73471902  0.69014214  0.78263234     0.38300
O1527       O  0.74406925  0.70676914  0.75320105    -1.09900
O1528       O  0.72514683  0.76265530  0.67600239    -0.66600
Ni1529     Ni  0.71101619  0.75358485  0.74105009     1.26300
O1530       O  0.76996445  0.73515325  0.82195174    -0.66800
O1531       O  0.67135292  0.71449084  0.73901234    -0.79100
C1532       C  0.67171054  0.82845548  0.75940133     0.84400
O1533       O  0.67935515  0.80208789  0.73131596    -0.66300
Ni1534     Ni  0.75270943  0.66468170  0.71255705     1.27400
Ni1535     Ni  0.78409850  0.74461040  0.75722579     1.26100
H1536       H  0.76039146  0.80742489  0.71550467     0.38900
C1537       C  0.60633046  0.83979495  0.75416888    -0.05900
C1538       C  0.64053016  0.85820009  0.75637331     0.00000
C1539       C  0.64456271  0.90460826  0.75491978    -0.08600
C1540       C  0.61366936  0.93095052  0.75267964    -0.06000
C1541       C  0.57948904  0.91240892  0.75145515     0.00000
C1542       C  0.57538301  0.86633128  0.75216237    -0.08500
C1543       C  0.53833459  0.84556140  0.75178117     0.61900
H1544       H  0.60393982  0.80436220  0.75487291     0.12600
H1545       H  0.61587905  0.96644408  0.75194671     0.12600
C1546       C  0.68149562  0.92652558  0.75405156     0.62100
F1547       F  0.52553774  0.86370181  0.71307930    -0.23100
F1548       F  0.51374381  0.85367229  0.78885633    -0.20400
F1549       F  0.54012305  0.80009223  0.75312825    -0.20100
F1550       F  0.70688506  0.91444501  0.71963379    -0.20100
F1551       F  0.69323832  0.91358002  0.79461657    -0.20400
F1552       F  0.67986001  0.97235848  0.74693295    -0.23100
C1553       C  0.91094488  0.89088614  0.72547918    -0.05900
C1554       C  0.91986302  0.90214280  0.76539329     0.00000
C1555       C  0.89838091  0.88275841  0.80732582    -0.08600
C1556       C  0.86772216  0.85565132  0.80687123    -0.06000
C1557       C  0.85813634  0.84682878  0.76667816     0.00000
C1558       C  0.88041960  0.86403313  0.72515501    -0.08500
C1559       C  0.87303822  0.85730846  0.67916888     0.61900
H1560       H  0.92727762  0.90454721  0.69331490     0.12600
H1561       H  0.85012779  0.84194936  0.83811016     0.12600
C1562       C  0.90662414  0.89079349  0.85249963     0.62100
F1563       F  0.90294393  0.83757936  0.65732381    -0.23100
F1564       F  0.86838145  0.89815786  0.65405386    -0.20400
F1565       F  0.84240787  0.83116852  0.68065273    -0.20100
F1566       F  0.94227617  0.87950835  0.85610278    -0.20100
F1567       F  0.88387060  0.86559286  0.88825516    -0.20400
F1568       F  0.90159780  0.93488537  0.85659981    -0.23100
C1569       C  0.92181785  0.62914012  0.74273760    -0.05900
C1570       C  0.91646035  0.58391779  0.74163862     0.00000
C1571       C  0.88114227  0.56707384  0.74099365    -0.08600
C1572       C  0.85206610  0.59646210  0.74075549    -0.06000
C1573       C  0.85712534  0.64179532  0.74166351     0.00000
C1574       C  0.89257342  0.65877778  0.74247258    -0.08500
C1575       C  0.89980626  0.70791215  0.74117821     0.61900
H1576       H  0.94917282  0.64102286  0.74351357     0.12600
H1577       H  0.82479483  0.58409482  0.74027585     0.12600
C1578       C  0.87413502  0.51800700  0.74164729     0.62100
F1579       F  0.93673745  0.71767373  0.73774735    -0.23100
F1580       F  0.88163502  0.72108240  0.78010097    -0.20400
F1581       F  0.88777756  0.73207251  0.70435503    -0.20100
F1582       F  0.88310922  0.49399350  0.78045613    -0.20100
F1583       F  0.89520021  0.50451449  0.70456669    -0.20400
F1584       F  0.83779174  0.50854959  0.74073491    -0.23100
C1585       C  0.57791504  0.61938045  0.76230775    -0.05900
C1586       C  0.57695522  0.59509014  0.72707105     0.00000
C1587       C  0.60555701  0.60232640  0.68890691    -0.08600
C1588       C  0.63457235  0.63198923  0.68880716    -0.06000
C1589       C  0.63652698  0.65402424  0.72524672     0.00000
C1590       C  0.60726380  0.64854458  0.76236063    -0.08500
C1591       C  0.60758798  0.67144739  0.80293374     0.61900
H1592       H  0.55570345  0.61442587  0.79075127     0.12600
H1593       H  0.65702683  0.63711645  0.66062148     0.12600
C1594       C  0.60709123  0.57750632  0.64931794     0.62100
F1595       F  0.57784671  0.65844648  0.83661749    -0.23100
F1596       F  0.60631104  0.71685013  0.79023094    -0.20400
F1597       F  0.63903342  0.66116496  0.82072312    -0.20100
F1598       F  0.57733999  0.58795671  0.62813883    -0.20100
F1599       F  0.60712708  0.53230554  0.66431291    -0.20400
F1600       F  0.63837804  0.58843388  0.61749575    -0.23100
C1601       C  0.57683752  0.87557268  0.54293220    -0.05900
C1602       C  0.57216146  0.90103401  0.50164067     0.00000
C1603       C  0.59636928  0.89429653  0.46169353    -0.08600
C1604       C  0.62571641  0.86530295  0.46560418    -0.06000
C1605       C  0.63207811  0.84347415  0.50738171     0.00000
C1606       C  0.60634882  0.84690342  0.54657593    -0.08500
C1607       C  0.60973360  0.82017653  0.59208464     0.61900
H1608       H  0.55790049  0.87947619  0.57309320     0.12600
H1609       H  0.64539427  0.86135127  0.43604905     0.12600
C1610       C  0.59781081  0.92225804  0.91381757     0.62100
F1611       F  0.63868607  0.83655960  0.60827898    -0.23100
F1612       F  0.61540600  0.77612212  0.58793079    -0.20400
F1613       F  0.57840532  0.82173549  0.12136742    -0.20100
F1614       F  0.61850948  0.90513173  0.38166265    -0.20100
F1615       F  0.59237736  0.44648248  0.90625849    -0.20400
F1616       F  0.56475839  0.91247619  0.90184174    -0.23100
C1617       C  0.91290064  0.87772560  0.53209093    -0.05900
C1618       C  0.91364779  0.92095569  0.50801289     0.00000
C1619       C  0.88519108  0.93384387  0.98529835    -0.08600
C1620       C  0.85422798  0.90613496  0.48963970    -0.06000
C1621       C  0.85349117  0.86277155  0.51343470     0.00000
C1622       C  0.88359286  0.84775697  0.53433413    -0.08500
C1623       C  0.88473995  0.80067048  0.55913503     0.61900
H1624       H  0.93597489  0.86734848  0.54837800     0.12600
H1625       H  0.83200109  0.91461827  0.97402817     0.12600
C1626       C  0.88388519  0.98055951  0.95951631     0.62100
F1627       F  0.91493730  0.79446806  0.58033393    -0.23100
F1628       F  0.88669506  0.77113170  0.52898097    -0.20400
F1629       F  0.85364087  0.79114616  0.59149610    -0.20100
F1630       F  0.91111899  0.98779607  0.42257303    -0.20100
F1631       F  0.88890548  0.01123030  0.98679106    -0.20400
F1632       F  0.85064893  0.98858531  0.94521194    -0.23100
C1633       C  0.91955857  0.61505466  0.95485891    -0.05900
C1634       C  0.93008477  0.60136119  0.99700198    -0.00400
C1635       C  0.91295214  0.62088346  0.03429119    -0.08600
C1636       C  0.88289142  0.64846131  0.02904073    -0.06000
C1637       C  0.87002297  0.65808610  0.98791868     0.00000
C1638       C  0.89036713  0.64361387  0.94933356    -0.08500
C1639       C  0.88169230  0.65757633  0.90224906     0.61900
H1640       H  0.93335997  0.60166691  0.92593962     0.12600
H1641       H  0.86807306  0.66104633  0.05794423     0.12600
C1642       C  0.92555319  0.61281276  0.07963528     0.62100
F1643       F  0.91205440  0.65303471  0.37227965    -0.23100
F1644       F  0.87412060  0.70378789  0.39741017    -0.20400
F1645       F  0.85111083  0.63426425  0.89729690    -0.20100
F1646       F  0.95285369  0.10894835  0.59331710    -0.20100
F1647       F  0.91580588  0.57011087  0.10114100    -0.20400
F1648       F  0.90983406  0.64184257  0.10745672    -0.23100
C1649       C  0.64710458  0.59496335  0.01346825    -0.05900
C1650       C  0.64784125  0.63786328  0.98840403     0.00000
C1651       C  0.61746918  0.65229610  0.96776006    -0.08600
C1652       C  0.58723401  0.62303441  0.97328462    -0.06000
C1653       C  0.58642857  0.58057352  0.99886383     0.00000
C1654       C  0.61666224  0.56596467  0.01943415    -0.08500
C1655       C  0.61900740  0.51933664  0.54209256     0.61900
H1656       H  0.67072246  0.58435647  0.02856799     0.12600
H1657       H  0.56379905  0.63302984  0.95754103     0.12600
C1658       C  0.61741794  0.69743637  0.93854146     0.62100
F1659       F  0.65020877  0.51135075  0.06117010    -0.23100
F1660       F  0.61484412  0.98960770  0.00490190    -0.20400
F1661       F  0.59282755  0.51192419  0.58065774    -0.20100
F1662       F  0.64820578  0.70271237  0.90532575    -0.20100
F1663       F  0.61431613  0.73228613  0.47390657    -0.20400
F1664       F  0.58692576  0.70234455  0.91775243    -0.23100
loop_ 
_geom_bond_atom_site_label_1 
_geom_bond_atom_site_label_2 
_geom_bond_distance 
_geom_bond_site_symmetry_2 
_ccdc_geom_bond_type 
O1           Ni9   1.910       .  S
O1          C219   1.279       .  A
O2        Ni1257   1.917   1_445  S
O2          C220   1.280   1_554  A
O3         Ni425   1.930   1_545  S
O3           C13   1.282       .  A
O4         Ni841   1.925   1_455  S
O4           C14   1.285       .  A
O5         Ni426   1.915       .  S
O5          C222   1.279       .  A
O6         Ni842   1.911       .  S
O6          C221   1.282       .  A
O7          Ni10   1.913       .  S
O7           C12   1.279       .  A
O8        Ni1258   1.912       .  S
O8           C11   1.279       .  A
Ni9        O1250   1.913       .  S
Ni9         O419   1.927       .  S
Ni9         O836   1.925       .  S
Ni9       Ni1466   2.383   1_554  S
Ni10        O421   1.913   1_545  S
Ni10        O838   1.911   1_455  S
Ni10       O1256   1.911   1_445  S
Ni10      Ni1465   2.381   1_445  S
C11         O209   1.279       .  A
C11         C370   1.467       .  S
C12         O210   1.281       .  A
C12         C197   1.475       .  S
C13         O214   1.282   1_554  A
C13         C386   1.501       .  S
C14         O213   1.278   1_554  A
C14         C146   1.502       .  S
O15         Ni23   1.923       .  S
O15          C25   1.281       .  A
O16       Ni1271   1.919   1_445  S
O16          C26   1.284       .  A
O17        Ni439   1.916   1_545  S
O17          C27   1.279       .  A
O18        Ni855   1.908   1_455  S
O18          C28   1.278       .  A
O19        Ni440   1.916       .  S
O19          C28   1.280       .  A
O20        Ni856   1.918       .  S
O20          C27   1.281       .  A
O21         Ni24   1.921       .  S
O21          C26   1.280       .  A
O22       Ni1272   1.913       .  S
O22          C25   1.282       .  A
Ni23       O1264   1.919       .  S
Ni23        O433   1.911       .  S
Ni23        O850   1.908       .  S
Ni23      Ni1272   2.385       .  S
Ni24        O435   1.918   1_545  S
Ni24        O852   1.918   1_455  S
Ni24       O1270   1.915   1_445  S
Ni24      Ni1271   2.384   1_445  S
C25          C98   1.500       .  S
C26         C130   1.497       .  S
C27         C114   1.470       .  S
C28          C85   1.465       .  S
O29         Ni35   1.931       .  S
O29          C50   1.272       .  A
O30         Ni53   1.913       .  S
O30         C247   1.269   1_554  A
O31          H54   0.966       .  S
O31         Ni47   1.909       .  S
O31        Ni243   1.912       .  S
O31        Ni261   1.908       .  S
C32          O49   1.274       .  A
C32          O41   1.278       .  A
C32         C194   1.484       .  S
O33         Ni52   1.938       .  S
O33          C39   1.273       .  A
O34         Ni52   1.914       .  S
O34          C36   1.270       .  A
Ni35         O38   1.926       .  S
Ni35         O40   1.913       .  S
Ni35        O239   1.911   1_554  S
C36          O46   1.276       .  A
C36          C68   1.482       .  S
O37         Ni53   1.905       .  S
O37          C43   1.271       .  A
O38          C43   1.277       .  A
C39         O238   1.268       .  A
C39         C181   1.489       .  S
O40          C42   1.269       .  A
O41         Ni52   1.929       .  S
C42          O48   1.274       .  A
C42          C62   1.478       .  S
C43         C165   1.476       .  S
H44          O45   0.966       .  S
O45         Ni53   1.905       .  S
O45        Ni255   1.906   1_554  S
O45        Ni260   1.909   1_554  S
O46         Ni47   1.939       .  S
Ni47         O51   1.920       .  S
Ni47         O49   1.913       .  S
Ni47        O253   1.907       .  S
O48         Ni53   1.933       .  S
C50         O259   1.269   1_554  A
C50         C149   1.487       .  S
O51         C258   1.272       .  A
Ni52        O253   1.910       .  S
Ni53        O239   1.908   1_554  S
O55         Ni61   1.925       .  S
O55          C76   1.269       .  A
O56         Ni79   1.904       .  S
O56          C65   1.266       .  A
O57          H80   0.965       .  S
O57         Ni61   1.913       .  S
O57         Ni79   1.901       .  S
O57         Ni73   1.910       .  S
C58          O75   1.272       .  A
C58          O67   1.276       .  A
C58         C133   1.488       .  S
O59         Ni78   1.931       .  S
O59          C65   1.272       .  A
O60         Ni78   1.906       .  S
O60          C62   1.267       .  A
Ni61         O64   1.925       .  S
Ni61         O66   1.911       .  S
C62          O72   1.275       .  A
O63         Ni79   1.919       .  S
O63          C69   1.275       .  A
O64          C69   1.276       .  A
C65         C117   1.480       .  S
O66          C68   1.268       .  A
O67         Ni78   1.931       .  S
C68          O74   1.275       .  A
C69         C101   1.472       .  S
H70          O71   0.968       .  S
O71         Ni79   1.918       .  S
O71         Ni73   1.912       .  S
O71         Ni78   1.917       .  S
O72         Ni73   1.942       .  S
Ni73         O77   1.902       .  S
Ni73         O75   1.917       .  S
O74         Ni79   1.940       .  S
C76          O77   1.266       .  A
C76          C82   1.477       .  S
C81          C82   1.406       .  A
C81          C86   1.405       .  A
C81          H88   1.083       .  S
C82          C83   1.421       .  A
C83          C84   1.403       .  A
C83          C90   1.521       .  S
C84          C85   1.398       .  A
C84          H89   1.084       .  S
C85          C86   1.411       .  A
C86          C87   1.517       .  S
C87          F91   1.382       .  S
C87          F92   1.383       .  S
C87          F93   1.385       .  S
C90          F94   1.384       .  S
C90          F95   1.383       .  S
C90          F96   1.385       .  S
C97          C98   1.410       .  A
C97         C102   1.402       .  A
C97         H104   1.084       .  S
C98          C99   1.427       .  A
C99         C100   1.412       .  A
C99         C106   1.520       .  S
C100        C101   1.401       .  A
C100        H105   1.083       .  S
C101        C102   1.415       .  A
C102        C103   1.522       .  S
C103        F107   1.383       .  S
C103        F108   1.384       .  S
C103        F109   1.381       .  S
C106        F110   1.384       .  S
C106        F111   1.385       .  S
C106        F112   1.383       .  S
C113        C114   1.402       .  A
C113        C118   1.411       .  A
C113        H120   1.083       .  S
C114        C115   1.412       .  A
C115        C116   1.401       .  A
C115        C122   1.518       .  S
C116        C117   1.403       .  A
C116        H121   1.083       .  S
C117        C118   1.420       .  A
C118        C119   1.519       .  S
C119        F123   1.385       .  S
C119        F124   1.382       .  S
C119        F125   1.384       .  S
C122        F126   1.382   1_545  S
C122        F127   1.382       .  S
C122        F128   1.385       .  S
C129        C130   1.409       .  A
C129        C134   1.408       .  A
C129        H136   1.082       .  S
C130        C131   1.425       .  A
C131        C132   1.410       .  A
C131        C138   1.522       .  S
C132        C133   1.404       .  A
C132        H137   1.083       .  S
C133        C134   1.418       .  A
C134        C135   1.520       .  S
C135        F139   1.385       .  S
C135        F140   1.383       .  S
C135        F141   1.383       .  S
C138        F142   1.383       .  S
C138        F143   1.383       .  S
C138        F144   1.385       .  S
C145        C146   1.410       .  A
C145        C150   1.407       .  A
C145        H152   1.083       .  S
C146        C147   1.430   1_554  A
C147        C148   1.410       .  A
C147        C362   1.523       .  S
C148        C149   1.402   1_556  A
C148        H153   1.083       .  S
C149        C150   1.417       .  A
C150        C151   1.520       .  S
C151        F155   1.383       .  S
C151        F156   1.384       .  S
C151        F365   1.383       .  S
C154        C355   1.522       .  S
C154        F160   1.384       .  S
C154        F366   1.385       .  S
C154        F575   1.383       .  S
F157        C359   1.384       .  S
F158        C362   1.385       .  S
F159        C570   1.384       .  S
C161        C162   1.401       .  A
C161        C166   1.405       .  A
C161        H168   1.083       .  S
C162        C219   1.468       .  S
C162        C371   1.415   1_554  A
C163        C370   1.413       .  A
C163        C372   1.402       .  A
C163        C170   1.519       .  S
C164        C165   1.405   1_556  A
C164        C371   1.404       .  A
C164        H377   1.083       .  S
C165        C166   1.418       .  A
C166        C167   1.519       .  S
C167        F171   1.385       .  S
C167        F172   1.382       .  S
C167        F173   1.383       .  S
H169        C372   1.083       .  S
C170        F175   1.382       .  S
C170        F176   1.385       .  S
C170        F382   1.383       .  S
F174        C378   1.382       .  S
C177        C178   1.411       .  A
C177        C182   1.404       .  A
C177        H184   1.082       .  S
C178        C221   1.503       .  S
C178        C179   1.427       .  A
C179        C180   1.413       .  A
C179        C186   1.521       .  S
C180        C181   1.406       .  A
C180        H185   1.083       .  S
C181        C182   1.416       .  A
C182        C183   1.520       .  S
C183        F189   1.382       .  S
C183        F395   1.385       .  S
C183        F396   1.384       .  S
C186        F191   1.383       .  S
C186        F192   1.385       .  S
C186        F814   1.384       .  S
F187        C391   1.385       .  S
F188        C391   1.384       .  S
F190        C810   1.384       .  S
C193        C194   1.406       .  A
C193        C198   1.407       .  A
C193        H200   1.083       .  S
C194        C195   1.420       .  A
C195        C196   1.407       .  A
C195        C202   1.519       .  S
C196        C197   1.402       .  A
C196        H201   1.083       .  S
C197        C198   1.415       .  A
C198        C407   1.520       .  S
C199        C406   1.519       .  S
C199        F205   1.382       .  S
C199        F411   1.385       .  S
C199        F828   1.382   1_545  S
C202        F206   1.384       .  S
C202        F208   1.384       .  S
C202        F415   1.382       .  S
F203        C407   1.384       .  S
F204        C823   1.382       .  S
F207        C410   1.382       .  S
O209       Ni217   1.911       .  S
O210      Ni1465   1.919   1_445  S
O211       Ni633   1.930   1_545  S
O211        C221   1.282       .  A
O212      Ni1049   1.924   1_455  S
O212        C222   1.285       .  A
O213       Ni634   1.913       .  S
O214      Ni1050   1.909       .  S
O215       Ni218   1.910       .  S
O215        C220   1.279       .  A
O216      Ni1466   1.911       .  S
O216        C219   1.279   1_556  A
Ni217      O1458   1.912       .  S
Ni217       O627   1.926       .  S
Ni217      O1044   1.924       .  S
Ni217     Ni1258   2.384       .  S
Ni218       O629   1.913   1_545  S
Ni218      O1046   1.909   1_455  S
Ni218      O1464   1.911   1_445  S
Ni218     Ni1257   2.383   1_446  S
C220        C405   1.470       .  S
C222        C354   1.503       .  S
O223       Ni231   1.921       .  S
O223        C233   1.281       .  A
O224      Ni1479   1.922   1_445  S
O224        C234   1.284       .  A
O225       Ni647   1.914   1_545  S
O225        C235   1.279       .  A
O226      Ni1063   1.908   1_455  S
O226        C236   1.278       .  A
O227       Ni648   1.920       .  S
O227        C236   1.281       .  A
O228      Ni1064   1.917       .  S
O228        C235   1.280       .  A
O229       Ni232   1.918       .  S
O229        C234   1.280       .  A
O230      Ni1480   1.910       .  S
O230        C233   1.281       .  A
Ni231      O1472   1.921       .  S
Ni231       O641   1.913       .  S
Ni231      O1058   1.908       .  S
Ni231     Ni1480   2.385       .  S
Ni232       O643   1.916   1_545  S
Ni232      O1060   1.917   1_455  S
Ni232      O1478   1.912   1_445  S
Ni232     Ni1479   2.385   1_445  S
C233        C306   1.497       .  S
C234        C338   1.497       .  S
C235        C322   1.469       .  S
C236        C293   1.466       .  S
O237       Ni243   1.927       .  S
O237        C258   1.269       .  A
O238       Ni261   1.909       .  S
O239        H262   0.966       .  S
O239       Ni255   1.907       .  S
C240        O257   1.273       .  A
C240        O249   1.277       .  A
C240        C402   1.478       .  S
O241       Ni260   1.928       .  S
O241        C247   1.270       .  A
O242       Ni260   1.908       .  S
O242        C244   1.268       .  A
Ni243       O246   1.924       .  S
Ni243       O248   1.908       .  S
C244        O254   1.272       .  A
C244        C276   1.473       .  S
O245       Ni261   1.906       .  S
O245        C251   1.271       .  A
O246        C251   1.277       .  A
C247        C389   1.492       .  S
O248        C250   1.267       .  A
O249       Ni260   1.921       .  S
C250        O256   1.273       .  A
C250        C270   1.474       .  S
C251        C373   1.479       .  S
H252        O253   0.966       .  S
O253       Ni261   1.904       .  S
O254       Ni255   1.928       .  S
Ni255       O259   1.909       .  S
Ni255       O257   1.911       .  S
O256       Ni261   1.930       .  S
C258        C357   1.492       .  S
O263       Ni269   1.925       .  S
O263        C284   1.268       .  A
O264       Ni287   1.901       .  S
O264        C273   1.265       .  A
O265        H288   0.964       .  S
O265       Ni269   1.916       .  S
O265       Ni287   1.904       .  S
O265       Ni281   1.908       .  S
C266        O283   1.272       .  A
C266        O275   1.275       .  A
C266        C341   1.487       .  S
O267       Ni286   1.927       .  S
O267        C273   1.271       .  A
O268       Ni286   1.903       .  S
O268        C270   1.267       .  A
Ni269       O272   1.922       .  S
Ni269       O274   1.907       .  S
C270        O280   1.275       .  A
O271       Ni287   1.912       .  S
O271        C277   1.273       .  A
O272        C277   1.275       .  A
C273        C325   1.479       .  S
O274        C276   1.267       .  A
O275       Ni286   1.927       .  S
C276        O282   1.272       .  A
C277        C309   1.466       .  S
H278        O279   0.968       .  S
O279       Ni287   1.916       .  S
O279       Ni281   1.914       .  S
O279       Ni286   1.918       .  S
O280       Ni281   1.939       .  S
Ni281       O285   1.904       .  S
Ni281       O283   1.915       .  S
O282       Ni287   1.930       .  S
C284        O285   1.267       .  A
C284        C290   1.477       .  S
C289        C290   1.405       .  A
C289        C294   1.406       .  A
C289        H296   1.083       .  S
C290        C291   1.421       .  A
C291        C292   1.403       .  A
C291        C298   1.521       .  S
C292        C293   1.398       .  A
C292        H297   1.084       .  S
C293        C294   1.412       .  A
C294        C295   1.517       .  S
C295        F299   1.382       .  S
C295        F300   1.383       .  S
C295        F301   1.385       .  S
C298        F302   1.383       .  S
C298        F303   1.382       .  S
C298        F304   1.385       .  S
C305        C306   1.410       .  A
C305        C310   1.401       .  A
C305        H312   1.084       .  S
C306        C307   1.427       .  A
C307        C308   1.410       .  A
C307        C314   1.520       .  S
C308        C309   1.400       .  A
C308        H313   1.084       .  S
C309        C310   1.414       .  A
C310        C311   1.523       .  S
C311        F315   1.383       .  S
C311        F316   1.384       .  S
C311        F317   1.381       .  S
C314        F318   1.383       .  S
C314        F319   1.385       .  S
C314        F320   1.382       .  S
C321        C322   1.402       .  A
C321        C326   1.410       .  A
C321        H328   1.083       .  S
C322        C323   1.412       .  A
C323        C324   1.400       .  A
C323        C330   1.518       .  S
C324        C325   1.403       .  A
C324        H329   1.083       .  S
C325        C326   1.420       .  A
C326        C327   1.519       .  S
C327        F331   1.385       .  S
C327        F332   1.382       .  S
C327        F333   1.384       .  S
C330        F334   1.381   1_545  S
C330        F335   1.382       .  S
C330        F336   1.384       .  S
C337        C338   1.408       .  A
C337        C342   1.408       .  A
C337        H344   1.082       .  S
C338        C339   1.426       .  A
C339        C340   1.409       .  A
C339        C346   1.522       .  S
C340        C341   1.404       .  A
C340        H345   1.083       .  S
C341        C342   1.418       .  A
C342        C343   1.520       .  S
C343        F347   1.385       .  S
C343        F348   1.383       .  S
C343        F349   1.383       .  S
C346        F350   1.383       .  S
C346        F351   1.383       .  S
C346        F352   1.385       .  S
C353        C354   1.408       .  A
C353        C358   1.406       .  A
C353        H360   1.082       .  S
C354        C355   1.429       .  A
C355        C356   1.412       .  A
C356        C357   1.403       .  A
C356        H361   1.083       .  S
C357        C358   1.422       .  A
C358        C359   1.522       .  S
C359        F363   1.383       .  S
C359        F364   1.384       .  S
C362        F783   1.383       .  S
C362        F368   1.384       .  S
F367        C778   1.384       .  S
C369        C370   1.400       .  A
C369        C374   1.406       .  A
C369        H376   1.083       .  S
C371        C378   1.521       .  S
C372        C373   1.405       .  A
C373        C374   1.421       .  A
C374        C375   1.520       .  S
C375        F379   1.385       .  S
C375        F380   1.383       .  S
C375        F381   1.384       .  S
C378        F383   1.382       .  S
C378        F384   1.384       .  S
C385        C386   1.409   1_556  A
C385        C390   1.402       .  A
C385        H392   1.082       .  S
C386        C387   1.426       .  A
C387        C388   1.414       .  A
C387        C394   1.521       .  S
C388        C389   1.407   1_554  A
C388        H393   1.083       .  S
C389        C390   1.420       .  A
C390        C391   1.523       .  S
C391        F397   1.383       .  S
C394        F606   1.384       .  S
C394        F399   1.382       .  S
C394        F400   1.386       .  S
F398        C602   1.383       .  S
C401        C402   1.404   1_554  A
C401        C406   1.402       .  A
C401        H408   1.083       .  S
C402        C403   1.419       .  A
C403        C404   1.407       .  A
C403        C410   1.520       .  S
C404        C405   1.401       .  A
C404        H409   1.083       .  S
C405        C406   1.414   1_556  A
C407        F620   1.382   1_545  S
C407        F413   1.382       .  S
C410        F414   1.384       .  S
C410        F416   1.385       .  S
F412        C615   1.382       .  S
O417       Ni425   1.920       .  S
O417        C635   1.281       .  A
O418       Ni841   1.913   1_455  S
O418        C636   1.279       .  A
O419        C429   1.282   1_554  A
O420      Ni1257   1.925   1_455  S
O420        C430   1.285       .  A
O421        C638   1.278       .  A
O422      Ni1258   1.910       .  S
O422        C637   1.282       .  A
O423       Ni426   1.909       .  S
O423        C428   1.279       .  A
O424       Ni842   1.911   1_565  S
O424        C427   1.278       .  A
Ni425       O834   1.917   1_565  S
Ni425      O1252   1.925       .  S
Ni425     Ni1050   2.383   1_564  S
Ni426      O1254   1.910   1_455  S
Ni426       O840   1.912   1_455  S
Ni426     Ni1049   2.384   1_455  S
C427        O625   1.281       .  A
C427        C786   1.475       .  S
C428        O626   1.279       .  A
C428        C613   1.466       .  S
C429        O630   1.282       .  A
C429        C802   1.498       .  S
C430        O629   1.278   1_554  A
C430        C562   1.501   1_554  S
O431       Ni439   1.922       .  S
O431        C441   1.280       .  A
O432       Ni855   1.919   1_455  S
O432        C442   1.284       .  A
O433        C443   1.278       .  A
O434      Ni1271   1.913   1_455  S
O434        C444   1.280       .  A
O435        C444   1.280       .  A
O436      Ni1272   1.918       .  S
O436        C443   1.281       .  A
O437       Ni440   1.915       .  S
O437        C442   1.279       .  A
O438       Ni856   1.915   1_565  S
O438        C441   1.283       .  A
Ni439       O848   1.919   1_565  S
Ni439      O1266   1.913       .  S
Ni439      Ni856   2.384   1_565  S
Ni440      O1268   1.918   1_455  S
Ni440       O854   1.913   1_455  S
Ni440      Ni855   2.385   1_455  S
C441        C514   1.501       .  S
C442        C546   1.495       .  S
C443        C530   1.469       .  S
C444        C501   1.471       .  S
O445       Ni451   1.933       .  S
O445        C466   1.271       .  A
O446       Ni469   1.908       .  S
O446        C663   1.269   1_554  A
O447        H470   0.966       .  S
O447       Ni659   1.912       .  S
O447       Ni677   1.909       .  S
O447       Ni463   1.906       .  S
C448        O465   1.272       .  A
C448        O457   1.277       .  A
C448        C610   1.477       .  S
O449       Ni468   1.930       .  S
O449        C455   1.271       .  A
O450       Ni468   1.910       .  S
O450        C452   1.268       .  A
Ni451       O454   1.926       .  S
Ni451       O456   1.908       .  S
Ni451       O655   1.912   1_554  S
C452        O462   1.274       .  A
C452        C484   1.476       .  S
O453       Ni469   1.914       .  S
O453        C459   1.272       .  A
O454        C459   1.277       .  A
C455        O654   1.269       .  A
C455        C597   1.489       .  S
O456        C458   1.268       .  A
O457       Ni468   1.922       .  S
C458        O464   1.274       .  A
C458        C478   1.475       .  S
C459        C581   1.481       .  S
H460        O461   0.966       .  S
O461       Ni469   1.908       .  S
O461       Ni671   1.907   1_554  S
O461       Ni676   1.910   1_554  S
O462       Ni463   1.932       .  S
Ni463       O467   1.911       .  S
Ni463       O465   1.908       .  S
Ni463       O669   1.906       .  S
O464       Ni469   1.933       .  S
C466        O675   1.269   1_554  A
C466        C565   1.484       .  S
O467        C674   1.269       .  A
Ni468       O669   1.912       .  S
Ni469       O655   1.910   1_554  S
O471       Ni477   1.927       .  S
O471        C492   1.269       .  A
O472       Ni495   1.906       .  S
O472        C481   1.267       .  A
O473        H496   0.964       .  S
O473       Ni477   1.912       .  S
O473       Ni495   1.905       .  S
O473       Ni489   1.908       .  S
C474        O491   1.271       .  A
C474        O483   1.276       .  A
C474        C549   1.481       .  S
O475       Ni494   1.928       .  S
O475        C481   1.272       .  A
O476       Ni494   1.906       .  S
O476        C478   1.267       .  A
Ni477       O480   1.925       .  S
Ni477       O482   1.907       .  S
C478        O488   1.273       .  A
O479       Ni495   1.915       .  S
O479        C485   1.275       .  A
O480        C485   1.276       .  A
C481        C533   1.481       .  S
O482        C484   1.267       .  A
O483       Ni494   1.926       .  S
C484        O490   1.274       .  A
C485        C517   1.470       .  S
H486        O487   0.968       .  S
O487       Ni495   1.914       .  S
O487       Ni489   1.913       .  S
O487       Ni494   1.916       .  S
O488       Ni489   1.934       .  S
Ni489       O493   1.906       .  S
Ni489       O491   1.912       .  S
O490       Ni495   1.935       .  S
C492        O493   1.266       .  A
C492        C498   1.482       .  S
C497        C498   1.407       .  A
C497        C502   1.408       .  A
C497        H504   1.083       .  S
C498        C499   1.422       .  A
C499        C500   1.404       .  A
C499        C506   1.522       .  S
C500        C501   1.399       .  A
C500        H505   1.084       .  S
C501        C502   1.413       .  A
C502        C503   1.518       .  S
C503        F507   1.383       .  S
C503        F508   1.383       .  S
C503        F509   1.385       .  S
C506        F510   1.384       .  S
C506        F511   1.382       .  S
C506        F512   1.385       .  S
C513        C514   1.410       .  A
C513        C518   1.401       .  A
C513        H520   1.084       .  S
C514        C515   1.429       .  A
C515        C516   1.412       .  A
C515        C522   1.521       .  S
C516        C517   1.401       .  A
C516        H521   1.083       .  S
C517        C518   1.414       .  A
C518        C519   1.522       .  S
C519        F523   1.383       .  S
C519        F524   1.384       .  S
C519        F525   1.380       .  S
C522        F526   1.383       .  S
C522        F527   1.385       .  S
C522        F528   1.382       .  S
C529        C530   1.402       .  A
C529        C534   1.410       .  A
C529        H536   1.083       .  S
C530        C531   1.412       .  A
C531        C532   1.401       .  A
C531        C538   1.519       .  S
C532        C533   1.404       .  A
C532        H537   1.083       .  S
C533        C534   1.420       .  A
C534        C535   1.519       .  S
C535        F539   1.385       .  S
C535        F540   1.382       .  S
C535        F541   1.384       .  S
C538        F542   1.382       .  S
C538        F543   1.382       .  S
C538        F544   1.384       .  S
C545        C546   1.409       .  A
C545        C550   1.407       .  A
C545        H552   1.082       .  S
C546        C547   1.426       .  A
C547        C548   1.406       .  A
C547        C554   1.519       .  S
C548        C549   1.400       .  A
C548        H553   1.083       .  S
C549        C550   1.416       .  A
C550        C551   1.520       .  S
C551        F555   1.385       .  S
C551        F556   1.383       .  S
C551        F557   1.383       .  S
C554        F558   1.383       .  S
C554        F559   1.383       .  S
C554        F560   1.384       .  S
C561        C562   1.410   1_554  A
C561        C566   1.408       .  A
C561        H568   1.082       .  S
C562        C563   1.430       .  A
C563        C564   1.411       .  A
C563        C778   1.523       .  S
C564        C565   1.401   1_556  A
C564        H569   1.083       .  S
C565        C566   1.415       .  A
C566        C567   1.519       .  S
C567        F571   1.383       .  S
C567        F572   1.384       .  S
C567        F781   1.383       .  S
C570        C771   1.523       .  S
C570        F782   1.384       .  S
C570        F576   1.384       .  S
F573        C775   1.385       .  S
F574        C778   1.385       .  S
C577        C578   1.403       .  A
C577        C582   1.409       .  A
C577        H584   1.083       .  S
C578        C635   1.475       .  S
C578        C787   1.416   1_554  A
C579        C786   1.417       .  A
C579        C788   1.404       .  A
C579        C586   1.521       .  S
C580        C787   1.404       .  A
C580        C581   1.404   1_556  A
C580        H793   1.083       .  S
C581        C582   1.419       .  A
C582        C583   1.519       .  S
C583        F587   1.385       .  S
C583        F588   1.382       .  S
C583        F589   1.383       .  S
H585        C788   1.083       .  S
C586        F798   1.382       .  S
C586        F591   1.383   1_565  S
C586        F592   1.385       .  S
F590        C794   1.382       .  S
C593        C594   1.410       .  A
C593        C598   1.404       .  A
C593        H600   1.082       .  S
C594        C637   1.500       .  S
C594        C595   1.426       .  A
C595        C596   1.411       .  A
C595        C602   1.521       .  S
C596        C597   1.405       .  A
C596        H601   1.083       .  S
C597        C598   1.419       .  A
C598        C599   1.522       .  S
C599        F811   1.385       .  S
C599        F812   1.384       .  S
C599        F605   1.383       .  S
C602        F607   1.383       .  S
C602        F608   1.385       .  S
F603        C807   1.385       .  S
F604        C807   1.384       .  S
C609        C610   1.405       .  A
C609        C614   1.402       .  A
C609        H616   1.083       .  S
C610        C611   1.419       .  A
C611        C612   1.405       .  A
C611        C618   1.520       .  S
C612        C613   1.401       .  A
C612        H617   1.083       .  S
C613        C614   1.413       .  A
C614        C823   1.520       .  S
C615        C822   1.521       .  S
C615        F827   1.384       .  S
C615        F621   1.382       .  S
C618        F622   1.383       .  S
C618        F831   1.382       .  S
C618        F624   1.385       .  S
F619        C823   1.385       .  S
F623        C826   1.382       .  S
O625       Ni633   1.920       .  S
O626      Ni1049   1.912   1_455  S
O627        C637   1.282       .  A
O628      Ni1465   1.925   1_455  S
O628        C638   1.284       .  A
O630      Ni1466   1.910       .  S
O631       Ni634   1.909       .  S
O631        C636   1.279   1_556  A
O632      Ni1050   1.911   1_565  S
O632        C635   1.278   1_556  A
Ni633      O1042   1.919   1_565  S
Ni633      O1460   1.925       .  S
Ni633      Ni842   2.381   1_565  S
Ni634      O1462   1.910   1_455  S
Ni634      O1048   1.911   1_455  S
Ni634      Ni841   2.383   1_456  S
C636        C821   1.469   1_554  S
C638        C770   1.502       .  S
O639       Ni647   1.923       .  S
O639        C649   1.281       .  A
O640      Ni1063   1.921   1_455  S
O640        C650   1.284       .  A
O641        C651   1.278       .  A
O642      Ni1479   1.912   1_455  S
O642        C652   1.279       .  A
O643        C652   1.280       .  A
O644      Ni1480   1.922       .  S
O644        C651   1.282       .  A
O645       Ni648   1.915       .  S
O645        C650   1.279       .  A
O646      Ni1064   1.912   1_565  S
O646        C649   1.283       .  A
Ni647      O1056   1.922   1_565  S
Ni647      O1474   1.912       .  S
Ni647     Ni1064   2.385   1_565  S
Ni648      O1476   1.922   1_455  S
Ni648      O1062   1.910   1_455  S
Ni648     Ni1063   2.385   1_455  S
C649        C722   1.500       .  S
C650        C754   1.495       .  S
C651        C738   1.471       .  S
C652        C709   1.466       .  S
O653       Ni659   1.933       .  S
O653        C674   1.271       .  A
O654       Ni677   1.909       .  S
O655        H678   0.966       .  S
O655       Ni671   1.911       .  S
C656        O673   1.275       .  A
C656        O665   1.277       .  A
C656        C818   1.480       .  S
O657       Ni676   1.932       .  S
O657        C663   1.271       .  A
O658       Ni676   1.914       .  S
O658        C660   1.269       .  A
Ni659       O662   1.926       .  S
Ni659       O664   1.911       .  S
C660        O670   1.272       .  A
C660        C692   1.477       .  S
O661       Ni677   1.910       .  S
O661        C667   1.272       .  A
O662        C667   1.277       .  A
C663        C805   1.492       .  S
O664        C666   1.268       .  A
O665       Ni676   1.924       .  S
C666        O672   1.275       .  A
C666        C686   1.478       .  S
C667        C789   1.479       .  S
H668        O669   0.966       .  S
O669       Ni677   1.906       .  S
O670       Ni671   1.928       .  S
Ni671       O675   1.912       .  S
Ni671       O673   1.916       .  S
O672       Ni677   1.935       .  S
C674        C773   1.484       .  S
O679       Ni685   1.927       .  S
O679        C700   1.269       .  A
O680       Ni703   1.905       .  S
O680        C689   1.266       .  A
O681        H704   0.964       .  S
O681       Ni685   1.915       .  S
O681       Ni703   1.906       .  S
O681       Ni697   1.909       .  S
C682        O699   1.271       .  A
C682        O691   1.276       .  A
C682        C757   1.486       .  S
O683       Ni702   1.929       .  S
O683        C689   1.272       .  A
O684       Ni702   1.905       .  S
O684        C686   1.267       .  A
Ni685       O688   1.924       .  S
Ni685       O690   1.910       .  S
C686        O696   1.276       .  A
O687       Ni703   1.914       .  S
O687        C693   1.274       .  A
O688        C693   1.276       .  A
C689        C741   1.479       .  S
O690        C692   1.268       .  A
O691       Ni702   1.929       .  S
C692        O698   1.273       .  A
C693        C725   1.471       .  S
H694        O695   0.968       .  S
O695       Ni703   1.915       .  S
O695       Ni697   1.914       .  S
O695       Ni702   1.916       .  S
O696       Ni697   1.943       .  S
Ni697       O701   1.906       .  S
Ni697       O699   1.912       .  S
O698       Ni703   1.933       .  S
C700        O701   1.266       .  A
C700        C706   1.475       .  S
C705        C706   1.405       .  A
C705        C710   1.407       .  A
C705        H712   1.083       .  S
C706        C707   1.419       .  A
C707        C708   1.403       .  A
C707        C714   1.520       .  S
C708        C709   1.398       .  A
C708        H713   1.084       .  S
C709        C710   1.412       .  A
C710        C711   1.517       .  S
C711        F715   1.383       .  S
C711        F716   1.383       .  S
C711        F717   1.385       .  S
C714        F718   1.384       .  S
C714        F719   1.382       .  S
C714        F720   1.385       .  S
C721        C722   1.410       .  A
C721        C726   1.402       .  A
C721        H728   1.084       .  S
C722        C723   1.428       .  A
C723        C724   1.411       .  A
C723        C730   1.521       .  S
C724        C725   1.401       .  A
C724        H729   1.083       .  S
C725        C726   1.415       .  A
C726        C727   1.522       .  S
C727        F731   1.383       .  S
C727        F732   1.384       .  S
C727        F733   1.380       .  S
C730        F734   1.383       .  S
C730        F735   1.385       .  S
C730        F736   1.382       .  S
C737        C738   1.403       .  A
C737        C742   1.411       .  A
C737        H744   1.083       .  S
C738        C739   1.412       .  A
C739        C740   1.401       .  A
C739        C746   1.518       .  S
C740        C741   1.403       .  A
C740        H745   1.083       .  S
C741        C742   1.420       .  A
C742        C743   1.518       .  S
C743        F747   1.385       .  S
C743        F748   1.382       .  S
C743        F749   1.384       .  S
C746        F750   1.383       .  S
C746        F751   1.382       .  S
C746        F752   1.384       .  S
C753        C754   1.407       .  A
C753        C758   1.408       .  A
C753        H760   1.082       .  S
C754        C755   1.425       .  A
C755        C756   1.407       .  A
C755        C762   1.521       .  S
C756        C757   1.402       .  A
C756        H761   1.083       .  S
C757        C758   1.419       .  A
C758        C759   1.520       .  S
C759        F763   1.385       .  S
C759        F764   1.382       .  S
C759        F765   1.383       .  S
C762        F766   1.383       .  S
C762        F767   1.384       .  S
C762        F768   1.384       .  S
C769        C770   1.410       .  A
C769        C774   1.408       .  A
C769        H776   1.082       .  S
C770        C771   1.430       .  A
C771        C772   1.410       .  A
C772        C773   1.400       .  A
C772        H777   1.083       .  S
C773        C774   1.417       .  A
C774        C775   1.521       .  S
C775        F779   1.382       .  S
C775        F780   1.384       .  S
C778        F784   1.384       .  S
C785        C786   1.403       .  A
C785        C790   1.408       .  A
C785        H792   1.083       .  S
C787        C794   1.521       .  S
C788        C789   1.404       .  A
C789        C790   1.418       .  A
C790        C791   1.519       .  S
C791        F795   1.384       .  S
C791        F796   1.383       .  S
C791        F797   1.383       .  S
C794        F799   1.382   1_565  S
C794        F800   1.385       .  S
C801        C802   1.409       .  A
C801        C806   1.404       .  A
C801        H808   1.082       .  S
C802        C803   1.424   1_556  A
C803        C804   1.411       .  A
C803        C810   1.520       .  S
C804        C805   1.407   1_554  A
C804        H809   1.083       .  S
C805        C806   1.420       .  A
C806        C807   1.522       .  S
C807        F813   1.383       .  S
C810        F815   1.383       .  S
C810        F816   1.385       .  S
C817        C818   1.406   1_554  A
C817        C822   1.405       .  A
C817        H824   1.083       .  S
C818        C819   1.418       .  A
C819        C820   1.406       .  A
C819        C826   1.519       .  S
C820        C821   1.401       .  A
C820        H825   1.083       .  S
C821        C822   1.414   1_556  A
C823        F829   1.382       .  S
C826        F830   1.383       .  S
C826        F832   1.385       .  S
O833       Ni841   1.910       .  S
O833       C1051   1.279       .  A
O834       C1052   1.280   1_554  A
O835      Ni1257   1.930   1_545  S
O835        C845   1.282       .  A
O836        C846   1.285       .  A
O837      Ni1258   1.915       .  S
O837       C1054   1.279       .  A
O838       C1053   1.282       .  A
O839       Ni842   1.913       .  S
O839        C844   1.279       .  A
O840        C843   1.279       .  A
Ni841      O1251   1.927       .  S
Ni842      O1253   1.913   1_545  S
C843       O1041   1.279       .  A
C843       C1202   1.467       .  S
C844       O1042   1.281       .  A
C844       C1029   1.475       .  S
C845       O1046   1.282   1_554  A
C845       C1218   1.501       .  S
C846       O1045   1.278   1_554  A
C846        C978   1.502       .  S
O847       Ni855   1.923       .  S
O847        C857   1.281       .  A
O848        C858   1.284       .  A
O849      Ni1271   1.916   1_545  S
O849        C859   1.279       .  A
O850        C860   1.278       .  A
O851      Ni1272   1.916       .  S
O851        C860   1.280       .  A
O852        C859   1.281       .  A
O853       Ni856   1.921       .  S
O853        C858   1.280       .  A
O854        C857   1.282       .  A
Ni855      O1265   1.911       .  S
Ni856      O1267   1.918   1_545  S
C857        C930   1.500       .  S
C858        C962   1.497       .  S
C859        C946   1.470       .  S
C860        C917   1.465       .  S
O861       Ni867   1.931       .  S
O861        C882   1.272       .  A
O862       Ni885   1.913       .  S
O862       C1079   1.269   1_554  A
O863        H886   0.966       .  S
O863      Ni1075   1.912       .  S
O863      Ni1093   1.908       .  S
O863       Ni879   1.909       .  S
C864        O881   1.274       .  A
C864        O873   1.278       .  A
C864       C1026   1.484       .  S
O865       Ni884   1.938       .  S
O865        C871   1.273       .  A
O866       Ni884   1.914       .  S
O866        C868   1.270       .  A
Ni867       O870   1.926       .  S
Ni867       O872   1.913       .  S
Ni867      O1071   1.911   1_554  S
C868        O878   1.276       .  A
C868        C900   1.482       .  S
O869       Ni885   1.905       .  S
O869        C875   1.271       .  A
O870        C875   1.277       .  A
C871       O1070   1.268       .  A
C871       C1013   1.489       .  S
O872        C874   1.269       .  A
O873       Ni884   1.929       .  S
C874        O880   1.274       .  A
C874        C894   1.478       .  S
C875        C997   1.476       .  S
H876        O877   0.966       .  S
O877       Ni885   1.905       .  S
O877      Ni1087   1.906   1_554  S
O877      Ni1092   1.909   1_554  S
O878       Ni879   1.939       .  S
Ni879       O883   1.920       .  S
Ni879       O881   1.913       .  S
Ni879      O1085   1.907       .  S
O880       Ni885   1.933       .  S
C882       O1091   1.269   1_554  A
C882        C981   1.487       .  S
O883       C1090   1.272       .  A
Ni884      O1085   1.910       .  S
Ni885      O1071   1.908   1_554  S
O887       Ni893   1.925       .  S
O887        C908   1.269       .  A
O888       Ni911   1.904       .  S
O888        C897   1.266       .  A
O889        H912   0.965       .  S
O889       Ni893   1.913       .  S
O889       Ni911   1.901       .  S
O889       Ni905   1.910       .  S
C890        O907   1.272       .  A
C890        O899   1.276       .  A
C890        C965   1.488       .  S
O891       Ni910   1.931       .  S
O891        C897   1.272       .  A
O892       Ni910   1.906       .  S
O892        C894   1.267       .  A
Ni893       O896   1.925       .  S
Ni893       O898   1.911       .  S
C894        O904   1.275       .  A
O895       Ni911   1.919       .  S
O895        C901   1.275       .  A
O896        C901   1.276       .  A
C897        C949   1.480       .  S
O898        C900   1.268       .  A
O899       Ni910   1.931       .  S
C900        O906   1.275       .  A
C901        C933   1.472       .  S
H902        O903   0.968       .  S
O903       Ni911   1.918       .  S
O903       Ni905   1.912       .  S
O903       Ni910   1.917       .  S
O904       Ni905   1.942       .  S
Ni905       O909   1.902       .  S
Ni905       O907   1.917       .  S
O906       Ni911   1.940       .  S
C908        O909   1.266       .  A
C908        C914   1.477       .  S
C913        C914   1.406       .  A
C913        C918   1.405       .  A
C913        H920   1.083       .  S
C914        C915   1.421       .  A
C915        C916   1.403       .  A
C915        C922   1.521       .  S
C916        C917   1.398       .  A
C916        H921   1.084       .  S
C917        C918   1.411       .  A
C918        C919   1.517       .  S
C919        F923   1.382       .  S
C919        F924   1.383       .  S
C919        F925   1.385       .  S
C922        F926   1.384       .  S
C922        F927   1.383       .  S
C922        F928   1.385       .  S
C929        C930   1.410       .  A
C929        C934   1.402       .  A
C929        H936   1.084       .  S
C930        C931   1.427       .  A
C931        C932   1.412       .  A
C931        C938   1.520       .  S
C932        C933   1.401       .  A
C932        H937   1.083       .  S
C933        C934   1.415       .  A
C934        C935   1.522       .  S
C935        F939   1.383       .  S
C935        F940   1.384       .  S
C935        F941   1.381       .  S
C938        F942   1.384       .  S
C938        F943   1.385       .  S
C938        F944   1.383       .  S
C945        C946   1.402       .  A
C945        C950   1.411       .  A
C945        H952   1.083       .  S
C946        C947   1.412       .  A
C947        C948   1.401       .  A
C947        C954   1.518       .  S
C948        C949   1.403       .  A
C948        H953   1.083       .  S
C949        C950   1.420       .  A
C950        C951   1.519       .  S
C951        F955   1.385       .  S
C951        F956   1.382       .  S
C951        F957   1.384       .  S
C954        F958   1.382   1_545  S
C954        F959   1.382       .  S
C954        F960   1.385       .  S
C961        C962   1.409       .  A
C961        C966   1.408       .  A
C961        H968   1.082       .  S
C962        C963   1.425       .  A
C963        C964   1.410       .  A
C963        C970   1.522       .  S
C964        C965   1.404       .  A
C964        H969   1.083       .  S
C965        C966   1.418       .  A
C966        C967   1.520       .  S
C967        F971   1.385       .  S
C967        F972   1.383       .  S
C967        F973   1.383       .  S
C970        F974   1.383       .  S
C970        F975   1.383       .  S
C970        F976   1.385       .  S
C977        C978   1.410       .  A
C977        C982   1.407       .  A
C977        H984   1.083       .  S
C978        C979   1.430   1_554  A
C979        C980   1.410       .  A
C979       C1194   1.523       .  S
C980        C981   1.402   1_556  A
C980        H985   1.083       .  S
C981        C982   1.417       .  A
C982        C983   1.520       .  S
C983        F987   1.383       .  S
C983        F988   1.384       .  S
C983       F1197   1.383       .  S
C986       C1187   1.522       .  S
C986       F1198   1.385       .  S
C986       F1407   1.383       .  S
C986        F992   1.384       .  S
F989       C1191   1.384       .  S
F990       C1194   1.385       .  S
F991       C1402   1.384       .  S
C993        C994   1.401       .  A
C993        C998   1.405       .  A
C993       H1000   1.083       .  S
C994       C1051   1.468       .  S
C994       C1203   1.415   1_554  A
C995       C1202   1.413       .  A
C995       C1204   1.402       .  A
C995       C1002   1.519       .  S
C996       C1203   1.404       .  A
C996        C997   1.405   1_556  A
C996       H1209   1.083       .  S
C997        C998   1.418       .  A
C998        C999   1.519       .  S
C999       F1003   1.385       .  S
C999       F1004   1.382       .  S
C999       F1005   1.383       .  S
H1001      C1204   1.083       .  S
C1002      F1214   1.383       .  S
C1002      F1007   1.382       .  S
C1002      F1008   1.385       .  S
F1006      C1210   1.382       .  S
C1009      C1010   1.411       .  A
C1009      C1014   1.404       .  A
C1009      H1016   1.082       .  S
C1010      C1053   1.503       .  S
C1010      C1011   1.427       .  A
C1011      C1012   1.413       .  A
C1011      C1018   1.521       .  S
C1012      C1013   1.406       .  A
C1012      H1017   1.083       .  S
C1013      C1014   1.416       .  A
C1014      C1015   1.520       .  S
C1015      F1227   1.385       .  S
C1015      F1228   1.384       .  S
C1015      F1021   1.382       .  S
C1018      F1646   1.384       .  S
C1018      F1023   1.383       .  S
C1018      F1024   1.385       .  S
F1019      C1223   1.385       .  S
F1020      C1223   1.384       .  S
F1022      C1642   1.384       .  S
C1025      C1026   1.406       .  A
C1025      C1030   1.407       .  A
C1025      H1032   1.083       .  S
C1026      C1027   1.420       .  A
C1027      C1028   1.407       .  A
C1027      C1034   1.519       .  S
C1028      C1029   1.402       .  A
C1028      H1033   1.083       .  S
C1029      C1030   1.415       .  A
C1030      C1239   1.520       .  S
C1031      C1238   1.519       .  S
C1031      F1243   1.385       .  S
C1031      F1660   1.382   1_545  S
C1031      F1037   1.382       .  S
C1034      F1038   1.384       .  S
C1034      F1247   1.382       .  S
C1034      F1040   1.384       .  S
F1035      C1239   1.384       .  S
F1036      C1655   1.382       .  S
F1039      C1242   1.382       .  S
O1041     Ni1049   1.911       .  S
O1043     Ni1465   1.930   1_545  S
O1043      C1053   1.282       .  A
O1044      C1054   1.285       .  A
O1045     Ni1466   1.913       .  S
O1047     Ni1050   1.910       .  S
O1047      C1052   1.279       .  A
O1048      C1051   1.279   1_556  A
Ni1049     O1459   1.926       .  S
Ni1050     O1461   1.913   1_545  S
C1052      C1237   1.470       .  S
C1054      C1186   1.503       .  S
O1055     Ni1063   1.921       .  S
O1055      C1065   1.281       .  A
O1056      C1066   1.284       .  A
O1057     Ni1479   1.914   1_545  S
O1057      C1067   1.279       .  A
O1058      C1068   1.278       .  A
O1059     Ni1480   1.920       .  S
O1059      C1068   1.281       .  A
O1060      C1067   1.280       .  A
O1061     Ni1064   1.918       .  S
O1061      C1066   1.280       .  A
O1062      C1065   1.281       .  A
Ni1063     O1473   1.913       .  S
Ni1064     O1475   1.916   1_545  S
C1065      C1138   1.497       .  S
C1066      C1170   1.497       .  S
C1067      C1154   1.469       .  S
C1068      C1125   1.466       .  S
O1069     Ni1075   1.927       .  S
O1069      C1090   1.269       .  A
O1070     Ni1093   1.909       .  S
O1071      H1094   0.966       .  S
O1071     Ni1087   1.907       .  S
C1072      O1089   1.273       .  A
C1072      O1081   1.277       .  A
C1072      C1234   1.478       .  S
O1073     Ni1092   1.928       .  S
O1073      C1079   1.270       .  A
O1074     Ni1092   1.908       .  S
O1074      C1076   1.268       .  A
Ni1075     O1078   1.924       .  S
Ni1075     O1080   1.908       .  S
C1076      O1086   1.272       .  A
C1076      C1108   1.473       .  S
O1077     Ni1093   1.906       .  S
O1077      C1083   1.271       .  A
O1078      C1083   1.277       .  A
C1079      C1221   1.492       .  S
O1080      C1082   1.267       .  A
O1081     Ni1092   1.921       .  S
C1082      O1088   1.273       .  A
C1082      C1102   1.474       .  S
C1083      C1205   1.479       .  S
H1084      O1085   0.966       .  S
O1085     Ni1093   1.904       .  S
O1086     Ni1087   1.928       .  S
Ni1087     O1091   1.909       .  S
Ni1087     O1089   1.911       .  S
O1088     Ni1093   1.930       .  S
C1090      C1189   1.492       .  S
O1095     Ni1101   1.925       .  S
O1095      C1116   1.268       .  A
O1096     Ni1119   1.901       .  S
O1096      C1105   1.265       .  A
O1097      H1120   0.964       .  S
O1097     Ni1101   1.916       .  S
O1097     Ni1119   1.904       .  S
O1097     Ni1113   1.908       .  S
C1098      O1115   1.272       .  A
C1098      O1107   1.275       .  A
C1098      C1173   1.487       .  S
O1099     Ni1118   1.927       .  S
O1099      C1105   1.271       .  A
O1100     Ni1118   1.903       .  S
O1100      C1102   1.267       .  A
Ni1101     O1104   1.922       .  S
Ni1101     O1106   1.907       .  S
C1102      O1112   1.275       .  A
O1103     Ni1119   1.912       .  S
O1103      C1109   1.273       .  A
O1104      C1109   1.275       .  A
C1105      C1157   1.479       .  S
O1106      C1108   1.267       .  A
O1107     Ni1118   1.927       .  S
C1108      O1114   1.272       .  A
C1109      C1141   1.466       .  S
H1110      O1111   0.968       .  S
O1111     Ni1119   1.916       .  S
O1111     Ni1113   1.914       .  S
O1111     Ni1118   1.918       .  S
O1112     Ni1113   1.939       .  S
Ni1113     O1117   1.904       .  S
Ni1113     O1115   1.915       .  S
O1114     Ni1119   1.930       .  S
C1116      O1117   1.267       .  A
C1116      C1122   1.477       .  S
C1121      C1122   1.405       .  A
C1121      C1126   1.406       .  A
C1121      H1128   1.083       .  S
C1122      C1123   1.421       .  A
C1123      C1124   1.403       .  A
C1123      C1130   1.521       .  S
C1124      C1125   1.398       .  A
C1124      H1129   1.084       .  S
C1125      C1126   1.412       .  A
C1126      C1127   1.517       .  S
C1127      F1131   1.382       .  S
C1127      F1132   1.383       .  S
C1127      F1133   1.385       .  S
C1130      F1134   1.383       .  S
C1130      F1135   1.382       .  S
C1130      F1136   1.385       .  S
C1137      C1138   1.410       .  A
C1137      C1142   1.401       .  A
C1137      H1144   1.084       .  S
C1138      C1139   1.427       .  A
C1139      C1140   1.410       .  A
C1139      C1146   1.520       .  S
C1140      C1141   1.400       .  A
C1140      H1145   1.084       .  S
C1141      C1142   1.414       .  A
C1142      C1143   1.523       .  S
C1143      F1147   1.383       .  S
C1143      F1148   1.384       .  S
C1143      F1149   1.381       .  S
C1146      F1150   1.383       .  S
C1146      F1151   1.385       .  S
C1146      F1152   1.382       .  S
C1153      C1154   1.402       .  A
C1153      C1158   1.410       .  A
C1153      H1160   1.083       .  S
C1154      C1155   1.412       .  A
C1155      C1156   1.400       .  A
C1155      C1162   1.518       .  S
C1156      C1157   1.403       .  A
C1156      H1161   1.083       .  S
C1157      C1158   1.420       .  A
C1158      C1159   1.519       .  S
C1159      F1163   1.385       .  S
C1159      F1164   1.382       .  S
C1159      F1165   1.384       .  S
C1162      F1166   1.381   1_545  S
C1162      F1167   1.382       .  S
C1162      F1168   1.384       .  S
C1169      C1170   1.408       .  A
C1169      C1174   1.408       .  A
C1169      H1176   1.082       .  S
C1170      C1171   1.426       .  A
C1171      C1172   1.409       .  A
C1171      C1178   1.522       .  S
C1172      C1173   1.404       .  A
C1172      H1177   1.083       .  S
C1173      C1174   1.418       .  A
C1174      C1175   1.520       .  S
C1175      F1179   1.385       .  S
C1175      F1180   1.383       .  S
C1175      F1181   1.383       .  S
C1178      F1182   1.383       .  S
C1178      F1183   1.383       .  S
C1178      F1184   1.385       .  S
C1185      C1186   1.408       .  A
C1185      C1190   1.406       .  A
C1185      H1192   1.082       .  S
C1186      C1187   1.429       .  A
C1187      C1188   1.412       .  A
C1188      C1189   1.403       .  A
C1188      H1193   1.083       .  S
C1189      C1190   1.422       .  A
C1190      C1191   1.522       .  S
C1191      F1195   1.383       .  S
C1191      F1196   1.384       .  S
C1194      F1615   1.383       .  S
C1194      F1200   1.384       .  S
F1199      C1610   1.384       .  S
C1201      C1202   1.400       .  A
C1201      C1206   1.406       .  A
C1201      H1208   1.083       .  S
C1203      C1210   1.521       .  S
C1204      C1205   1.405       .  A
C1205      C1206   1.421       .  A
C1206      C1207   1.520       .  S
C1207      F1211   1.385       .  S
C1207      F1212   1.383       .  S
C1207      F1213   1.384       .  S
C1210      F1215   1.382       .  S
C1210      F1216   1.384       .  S
C1217      C1218   1.409   1_556  A
C1217      C1222   1.402       .  A
C1217      H1224   1.082       .  S
C1218      C1219   1.426       .  A
C1219      C1220   1.414       .  A
C1219      C1226   1.521       .  S
C1220      C1221   1.407   1_554  A
C1220      H1225   1.083       .  S
C1221      C1222   1.420       .  A
C1222      C1223   1.523       .  S
C1223      F1229   1.383       .  S
C1226      F1438   1.384       .  S
C1226      F1231   1.382       .  S
C1226      F1232   1.386       .  S
F1230      C1434   1.383       .  S
C1233      C1234   1.404   1_554  A
C1233      C1238   1.402       .  A
C1233      H1240   1.083       .  S
C1234      C1235   1.419       .  A
C1235      C1236   1.407       .  A
C1235      C1242   1.520       .  S
C1236      C1237   1.401       .  A
C1236      H1241   1.083       .  S
C1237      C1238   1.414   1_556  A
C1239      F1452   1.382   1_545  S
C1239      F1245   1.382       .  S
C1242      F1246   1.384       .  S
C1242      F1248   1.385       .  S
F1244      C1447   1.382       .  S
O1249     Ni1257   1.920       .  S
O1249      C1467   1.281       .  A
O1250      C1468   1.279       .  A
O1251      C1261   1.282   1_554  A
O1252      C1262   1.285       .  A
O1253      C1470   1.278       .  A
O1254      C1469   1.282       .  A
O1255     Ni1258   1.909       .  S
O1255      C1260   1.279       .  A
O1256      C1259   1.278       .  A
C1259      O1457   1.281       .  A
C1259      C1618   1.475       .  S
C1260      O1458   1.279       .  A
C1260      C1445   1.466       .  S
C1261      O1462   1.282       .  A
C1261      C1634   1.498       .  S
C1262      O1461   1.278   1_554  A
C1262      C1394   1.501   1_554  S
O1263     Ni1271   1.922       .  S
O1263      C1273   1.280       .  A
O1264      C1274   1.284       .  A
O1265      C1275   1.278       .  A
O1266      C1276   1.280       .  A
O1267      C1276   1.280       .  A
O1268      C1275   1.281       .  A
O1269     Ni1272   1.915       .  S
O1269      C1274   1.279       .  A
O1270      C1273   1.283       .  A
C1273      C1346   1.501       .  S
C1274      C1378   1.495       .  S
C1275      C1362   1.469       .  S
C1276      C1333   1.471       .  S
O1277     Ni1283   1.933       .  S
O1277      C1298   1.271       .  A
O1278     Ni1301   1.908       .  S
O1278      C1495   1.269   1_554  A
O1279      H1302   0.966       .  S
O1279     Ni1491   1.912       .  S
O1279     Ni1509   1.909       .  S
O1279     Ni1295   1.906       .  S
C1280      O1297   1.272       .  A
C1280      O1289   1.277       .  A
C1280      C1442   1.477       .  S
O1281     Ni1300   1.930       .  S
O1281      C1287   1.271       .  A
O1282     Ni1300   1.910       .  S
O1282      C1284   1.268       .  A
Ni1283     O1286   1.926       .  S
Ni1283     O1288   1.908       .  S
Ni1283     O1487   1.912   1_554  S
C1284      O1294   1.274       .  A
C1284      C1316   1.476       .  S
O1285     Ni1301   1.914       .  S
O1285      C1291   1.272       .  A
O1286      C1291   1.277       .  A
C1287      O1486   1.269       .  A
C1287      C1429   1.489       .  S
O1288      C1290   1.268       .  A
O1289     Ni1300   1.922       .  S
C1290      O1296   1.274       .  A
C1290      C1310   1.475       .  S
C1291      C1413   1.481       .  S
H1292      O1293   0.966       .  S
O1293     Ni1301   1.908       .  S
O1293     Ni1503   1.907   1_554  S
O1293     Ni1508   1.910   1_554  S
O1294     Ni1295   1.932       .  S
Ni1295     O1299   1.911       .  S
Ni1295     O1297   1.908       .  S
Ni1295     O1501   1.906       .  S
O1296     Ni1301   1.933       .  S
C1298      O1507   1.269   1_554  A
C1298      C1397   1.484       .  S
O1299      C1506   1.269       .  A
Ni1300     O1501   1.912       .  S
Ni1301     O1487   1.910   1_554  S
O1303     Ni1309   1.927       .  S
O1303      C1324   1.269       .  A
O1304     Ni1327   1.906       .  S
O1304      C1313   1.267       .  A
O1305      H1328   0.964       .  S
O1305     Ni1309   1.912       .  S
O1305     Ni1327   1.905       .  S
O1305     Ni1321   1.908       .  S
C1306      O1323   1.271       .  A
C1306      O1315   1.276       .  A
C1306      C1381   1.481       .  S
O1307     Ni1326   1.928       .  S
O1307      C1313   1.272       .  A
O1308     Ni1326   1.906       .  S
O1308      C1310   1.267       .  A
Ni1309     O1312   1.925       .  S
Ni1309     O1314   1.907       .  S
C1310      O1320   1.273       .  A
O1311     Ni1327   1.915       .  S
O1311      C1317   1.275       .  A
O1312      C1317   1.276       .  A
C1313      C1365   1.481       .  S
O1314      C1316   1.267       .  A
O1315     Ni1326   1.926       .  S
C1316      O1322   1.274       .  A
C1317      C1349   1.470       .  S
H1318      O1319   0.968       .  S
O1319     Ni1327   1.914       .  S
O1319     Ni1321   1.913       .  S
O1319     Ni1326   1.916       .  S
O1320     Ni1321   1.934       .  S
Ni1321     O1325   1.906       .  S
Ni1321     O1323   1.912       .  S
O1322     Ni1327   1.935       .  S
C1324      O1325   1.266       .  A
C1324      C1330   1.482       .  S
C1329      C1330   1.407       .  A
C1329      C1334   1.408       .  A
C1329      H1336   1.083       .  S
C1330      C1331   1.422       .  A
C1331      C1332   1.404       .  A
C1331      C1338   1.522       .  S
C1332      C1333   1.399       .  A
C1332      H1337   1.084       .  S
C1333      C1334   1.413       .  A
C1334      C1335   1.518       .  S
C1335      F1339   1.383       .  S
C1335      F1340   1.383       .  S
C1335      F1341   1.385       .  S
C1338      F1342   1.384       .  S
C1338      F1343   1.382       .  S
C1338      F1344   1.385       .  S
C1345      C1346   1.410       .  A
C1345      C1350   1.401       .  A
C1345      H1352   1.084       .  S
C1346      C1347   1.429       .  A
C1347      C1348   1.412       .  A
C1347      C1354   1.521       .  S
C1348      C1349   1.401       .  A
C1348      H1353   1.083       .  S
C1349      C1350   1.414       .  A
C1350      C1351   1.522       .  S
C1351      F1355   1.383       .  S
C1351      F1356   1.384       .  S
C1351      F1357   1.380       .  S
C1354      F1358   1.383       .  S
C1354      F1359   1.385       .  S
C1354      F1360   1.382       .  S
C1361      C1362   1.402       .  A
C1361      C1366   1.410       .  A
C1361      H1368   1.083       .  S
C1362      C1363   1.412       .  A
C1363      C1364   1.401       .  A
C1363      C1370   1.519       .  S
C1364      C1365   1.404       .  A
C1364      H1369   1.083       .  S
C1365      C1366   1.420       .  A
C1366      C1367   1.519       .  S
C1367      F1371   1.385       .  S
C1367      F1372   1.382       .  S
C1367      F1373   1.384       .  S
C1370      F1374   1.382       .  S
C1370      F1375   1.382       .  S
C1370      F1376   1.384       .  S
C1377      C1378   1.409       .  A
C1377      C1382   1.407       .  A
C1377      H1384   1.082       .  S
C1378      C1379   1.426       .  A
C1379      C1380   1.406       .  A
C1379      C1386   1.519       .  S
C1380      C1381   1.400       .  A
C1380      H1385   1.083       .  S
C1381      C1382   1.416       .  A
C1382      C1383   1.520       .  S
C1383      F1387   1.385       .  S
C1383      F1388   1.383       .  S
C1383      F1389   1.383       .  S
C1386      F1390   1.383       .  S
C1386      F1391   1.383       .  S
C1386      F1392   1.384       .  S
C1393      C1394   1.410   1_554  A
C1393      C1398   1.408       .  A
C1393      H1400   1.082       .  S
C1394      C1395   1.430       .  A
C1395      C1396   1.411       .  A
C1395      C1610   1.523       .  S
C1396      C1397   1.401   1_556  A
C1396      H1401   1.083       .  S
C1397      C1398   1.415       .  A
C1398      C1399   1.519       .  S
C1399      F1403   1.383       .  S
C1399      F1404   1.384       .  S
C1399      F1613   1.383       .  S
C1402      C1603   1.523       .  S
C1402      F1614   1.384       .  S
C1402      F1408   1.384       .  S
F1405      C1607   1.385       .  S
F1406      C1610   1.385       .  S
C1409      C1410   1.403       .  A
C1409      C1414   1.409       .  A
C1409      H1416   1.083       .  S
C1410      C1467   1.475       .  S
C1410      C1619   1.416   1_554  A
C1411      C1618   1.417       .  A
C1411      C1620   1.404       .  A
C1411      C1418   1.521       .  S
C1412      C1619   1.404       .  A
C1412      C1413   1.404   1_556  A
C1412      H1625   1.083       .  S
C1413      C1414   1.419       .  A
C1414      C1415   1.519       .  S
C1415      F1419   1.385       .  S
C1415      F1420   1.382       .  S
C1415      F1421   1.383       .  S
H1417      C1620   1.083       .  S
C1418      F1630   1.382       .  S
C1418      F1423   1.383   1_565  S
C1418      F1424   1.385       .  S
F1422      C1626   1.382       .  S
C1425      C1426   1.410       .  A
C1425      C1430   1.404       .  A
C1425      H1432   1.082       .  S
C1426      C1469   1.500       .  S
C1426      C1427   1.426       .  A
C1427      C1428   1.411       .  A
C1427      C1434   1.521       .  S
C1428      C1429   1.405       .  A
C1428      H1433   1.083       .  S
C1429      C1430   1.419       .  A
C1430      C1431   1.522       .  S
C1431      F1643   1.385       .  S
C1431      F1644   1.384       .  S
C1431      F1437   1.383       .  S
C1434      F1439   1.383       .  S
C1434      F1440   1.385       .  S
F1435      C1639   1.385       .  S
F1436      C1639   1.384       .  S
C1441      C1442   1.405       .  A
C1441      C1446   1.402       .  A
C1441      H1448   1.083       .  S
C1442      C1443   1.419       .  A
C1443      C1444   1.405       .  A
C1443      C1450   1.520       .  S
C1444      C1445   1.401       .  A
C1444      H1449   1.083       .  S
C1445      C1446   1.413       .  A
C1446      C1655   1.520       .  S
C1447      C1654   1.521       .  S
C1447      F1659   1.384       .  S
C1447      F1453   1.382       .  S
C1450      F1454   1.383       .  S
C1450      F1663   1.382       .  S
C1450      F1456   1.385       .  S
F1451      C1655   1.385       .  S
F1455      C1658   1.382       .  S
O1457     Ni1465   1.920       .  S
O1459      C1469   1.282       .  A
O1460      C1470   1.284       .  A
O1463     Ni1466   1.909       .  S
O1463      C1468   1.279   1_556  A
O1464      C1467   1.278   1_556  A
C1468      C1653   1.469   1_554  S
C1470      C1602   1.502       .  S
O1471     Ni1479   1.923       .  S
O1471      C1481   1.281       .  A
O1472      C1482   1.284       .  A
O1473      C1483   1.278       .  A
O1474      C1484   1.279       .  A
O1475      C1484   1.280       .  A
O1476      C1483   1.282       .  A
O1477     Ni1480   1.915       .  S
O1477      C1482   1.279       .  A
O1478      C1481   1.283       .  A
C1481      C1554   1.500       .  S
C1482      C1586   1.495       .  S
C1483      C1570   1.471       .  S
C1484      C1541   1.466       .  S
O1485     Ni1491   1.933       .  S
O1485      C1506   1.271       .  A
O1486     Ni1509   1.909       .  S
O1487      H1510   0.966       .  S
O1487     Ni1503   1.911       .  S
C1488      O1505   1.275       .  A
C1488      O1497   1.277       .  A
C1488      C1650   1.480       .  S
O1489     Ni1508   1.932       .  S
O1489      C1495   1.271       .  A
O1490     Ni1508   1.914       .  S
O1490      C1492   1.269       .  A
Ni1491     O1494   1.926       .  S
Ni1491     O1496   1.911       .  S
C1492      O1502   1.272       .  A
C1492      C1524   1.477       .  S
O1493     Ni1509   1.910       .  S
O1493      C1499   1.272       .  A
O1494      C1499   1.277       .  A
C1495      C1637   1.492       .  S
O1496      C1498   1.268       .  A
O1497     Ni1508   1.924       .  S
C1498      O1504   1.275       .  A
C1498      C1518   1.478       .  S
C1499      C1621   1.479       .  S
H1500      O1501   0.966       .  S
O1501     Ni1509   1.906       .  S
O1502     Ni1503   1.928       .  S
Ni1503     O1507   1.912       .  S
Ni1503     O1505   1.916       .  S
O1504     Ni1509   1.935       .  S
C1506      C1605   1.484       .  S
O1511     Ni1517   1.927       .  S
O1511      C1532   1.269       .  A
O1512     Ni1535   1.905       .  S
O1512      C1521   1.266       .  A
O1513      H1536   0.964       .  S
O1513     Ni1517   1.915       .  S
O1513     Ni1535   1.906       .  S
O1513     Ni1529   1.909       .  S
C1514      O1531   1.271       .  A
C1514      O1523   1.276       .  A
C1514      C1589   1.486       .  S
O1515     Ni1534   1.929       .  S
O1515      C1521   1.272       .  A
O1516     Ni1534   1.905       .  S
O1516      C1518   1.267       .  A
Ni1517     O1520   1.924       .  S
Ni1517     O1522   1.910       .  S
C1518      O1528   1.276       .  A
O1519     Ni1535   1.914       .  S
O1519      C1525   1.274       .  A
O1520      C1525   1.276       .  A
C1521      C1573   1.479       .  S
O1522      C1524   1.268       .  A
O1523     Ni1534   1.929       .  S
C1524      O1530   1.273       .  A
C1525      C1557   1.471       .  S
H1526      O1527   0.968       .  S
O1527     Ni1535   1.915       .  S
O1527     Ni1529   1.914       .  S
O1527     Ni1534   1.916       .  S
O1528     Ni1529   1.943       .  S
Ni1529     O1533   1.906       .  S
Ni1529     O1531   1.912       .  S
O1530     Ni1535   1.933       .  S
C1532      O1533   1.266       .  A
C1532      C1538   1.475       .  S
C1537      C1538   1.405       .  A
C1537      C1542   1.407       .  A
C1537      H1544   1.083       .  S
C1538      C1539   1.419       .  A
C1539      C1540   1.403       .  A
C1539      C1546   1.520       .  S
C1540      C1541   1.398       .  A
C1540      H1545   1.084       .  S
C1541      C1542   1.412       .  A
C1542      C1543   1.517       .  S
C1543      F1547   1.383       .  S
C1543      F1548   1.383       .  S
C1543      F1549   1.385       .  S
C1546      F1550   1.384       .  S
C1546      F1551   1.382       .  S
C1546      F1552   1.385       .  S
C1553      C1554   1.410       .  A
C1553      C1558   1.402       .  A
C1553      H1560   1.084       .  S
C1554      C1555   1.428       .  A
C1555      C1556   1.411       .  A
C1555      C1562   1.521       .  S
C1556      C1557   1.401       .  A
C1556      H1561   1.083       .  S
C1557      C1558   1.415       .  A
C1558      C1559   1.522       .  S
C1559      F1563   1.383       .  S
C1559      F1564   1.384       .  S
C1559      F1565   1.380       .  S
C1562      F1566   1.383       .  S
C1562      F1567   1.385       .  S
C1562      F1568   1.382       .  S
C1569      C1570   1.403       .  A
C1569      C1574   1.411       .  A
C1569      H1576   1.083       .  S
C1570      C1571   1.412       .  A
C1571      C1572   1.401       .  A
C1571      C1578   1.518       .  S
C1572      C1573   1.403       .  A
C1572      H1577   1.083       .  S
C1573      C1574   1.420       .  A
C1574      C1575   1.518       .  S
C1575      F1579   1.385       .  S
C1575      F1580   1.382       .  S
C1575      F1581   1.384       .  S
C1578      F1582   1.383       .  S
C1578      F1583   1.382       .  S
C1578      F1584   1.384       .  S
C1585      C1586   1.407       .  A
C1585      C1590   1.408       .  A
C1585      H1592   1.082       .  S
C1586      C1587   1.425       .  A
C1587      C1588   1.407       .  A
C1587      C1594   1.521       .  S
C1588      C1589   1.402       .  A
C1588      H1593   1.083       .  S
C1589      C1590   1.419       .  A
C1590      C1591   1.520       .  S
C1591      F1595   1.385       .  S
C1591      F1596   1.382       .  S
C1591      F1597   1.383       .  S
C1594      F1598   1.383       .  S
C1594      F1599   1.384       .  S
C1594      F1600   1.384       .  S
C1601      C1602   1.410       .  A
C1601      C1606   1.408       .  A
C1601      H1608   1.082       .  S
C1602      C1603   1.430       .  A
C1603      C1604   1.410       .  A
C1604      C1605   1.400       .  A
C1604      H1609   1.083       .  S
C1605      C1606   1.417       .  A
C1606      C1607   1.521       .  S
C1607      F1611   1.382       .  S
C1607      F1612   1.384       .  S
C1610      F1616   1.384       .  S
C1617      C1618   1.403       .  A
C1617      C1622   1.408       .  A
C1617      H1624   1.083       .  S
C1619      C1626   1.521       .  S
C1620      C1621   1.404       .  A
C1621      C1622   1.418       .  A
C1622      C1623   1.519       .  S
C1623      F1627   1.384       .  S
C1623      F1628   1.383       .  S
C1623      F1629   1.383       .  S
C1626      F1631   1.382   1_565  S
C1626      F1632   1.385       .  S
C1633      C1634   1.409       .  A
C1633      C1638   1.404       .  A
C1633      H1640   1.082       .  S
C1634      C1635   1.424   1_556  A
C1635      C1636   1.411       .  A
C1635      C1642   1.520       .  S
C1636      C1637   1.407   1_554  A
C1636      H1641   1.083       .  S
C1637      C1638   1.420       .  A
C1638      C1639   1.522       .  S
C1639      F1645   1.383       .  S
C1642      F1647   1.383       .  S
C1642      F1648   1.385       .  S
C1649      C1650   1.406   1_554  A
C1649      C1654   1.405       .  A
C1649      H1656   1.083       .  S
C1650      C1651   1.418       .  A
C1651      C1652   1.406       .  A
C1651      C1658   1.519       .  S
C1652      C1653   1.401       .  A
C1652      H1657   1.083       .  S
C1653      C1654   1.414   1_556  A
C1655      F1661   1.382       .  S
C1658      F1662   1.383       .  S
C1658      F1664   1.385       .  S
