geometry optimzed in LAMMPS
_audit_creation_date              2020-11-30 
_audit_creation_method            'lammps2cif' 
_symmetry_space_group_name_H-M    'P1' 
_symmetry_Int_Tables_number       1 
_symmetry_cell_setting            triclinic 
loop_ 
_symmetry_equiv_pos_as_xyz 
  x,y,z 
_cell_length_a                    27.61126447 
_cell_length_b                    30.597878054353263 
_cell_length_c                    27.64225060737897 
_cell_angle_alpha                 91.01256128016212 
_cell_angle_beta                  91.33126116569545 
_cell_angle_gamma                 90.120575940392 
loop_ 
_atom_site_label 
_atom_site_type_symbol 
_atom_site_fract_x 
_atom_site_fract_y 
_atom_site_fract_z 
_atom_site_charge 
N1          N  0.45094011  0.42853042  0.42044466    -0.06700
N2          N  0.44014550  0.39848892  0.38688435    -0.58800
N3          N  0.41222682  0.52853957  0.45027970    -0.06400
N4          N  0.37864378  0.55811361  0.44079131    -0.61000
N5          N  0.44584646  0.52899467  0.41733477    -0.06000
N6          N  0.43586623  0.55903730  0.38488675    -0.58800
N7          N  0.41807208  0.42880887  0.45413292    -0.05700
N8          N  0.38435960  0.39928135  0.44414630    -0.61300
C9          C  0.39871588  0.38016877  0.40247407     0.95500
C10         C  0.39391143  0.57709551  0.39995839     0.95300
N11         N  0.44701924  0.53776266  0.59791109    -0.06900
N12         N  0.43693014  0.57070918  0.62750337    -0.59400
N13         N  0.42034000  0.43331777  0.56809400    -0.05000
N14         N  0.39093637  0.40042846  0.57686289    -0.60700
N15         N  0.45383899  0.43713969  0.60254826    -0.06900
N16         N  0.44765820  0.40701946  0.63557383    -0.59700
N17         N  0.41325556  0.53387561  0.56379094    -0.04700
N18         N  0.37965339  0.56407015  0.56933396    -0.60700
Mn19       Mn  0.41482290  0.48096782  0.50919448     1.18400
C20         C  0.39483639  0.58696190  0.60917555     0.97600
C21         C  0.40852039  0.38400422  0.61888856     0.98200
N22         N  0.56084257  0.53370851  0.41856774    -0.06900
N23         N  0.56769057  0.56382758  0.38578714    -0.63200
N24         N  0.60029364  0.43631271  0.45540865    -0.05700
N25         N  0.63503803  0.40787615  0.44585600    -0.63900
N26         N  0.56550618  0.43337405  0.42210495    -0.06400
N27         N  0.57560064  0.40270808  0.38978062    -0.63500
N28         N  0.59525657  0.53601840  0.45221655    -0.05300
N29         N  0.62634556  0.56739452  0.44298975    -0.64200
Mn30       Mn  0.50581840  0.48111162  0.41829365     1.10700
C31         C  0.60853544  0.58467400  0.40166322     0.98800
C32         C  0.61886173  0.38674341  0.40500479     0.98900
N33         N  0.56800552  0.44406668  0.60382210    -0.06500
N34         N  0.57941309  0.41680576  0.63856839    -0.61800
N35         N  0.59529734  0.54294665  0.56575470    -0.05800
N36         N  0.62509529  0.57643443  0.57215169    -0.58600
N37         N  0.56171697  0.54384450  0.59879929    -0.07100
N38         N  0.56817207  0.57793869  0.62835741    -0.61400
N39         N  0.60118122  0.44313081  0.57042498    -0.06100
N40         N  0.63585449  0.41523650  0.58182439    -0.58600
Mn41       Mn  0.50761672  0.49084680  0.60231010     1.20200
Mn42       Mn  0.59936903  0.48944489  0.51105515     1.10100
Cl43       Cl  0.50695511  0.48553943  0.51019524    -0.86500
C44         C  0.62167380  0.39899668  0.62441210     0.95800
C45         C  0.60779746  0.59814273  0.61120256     0.95600
N46         N  0.93772009  0.46880428  0.89794026    -0.06700
N47         N  0.93017427  0.43470364  0.86843264    -0.58800
N48         N  0.89849757  0.56973717  0.92665269    -0.06400
N49         N  0.86307432  0.59689799  0.91548677    -0.61000
N50         N  0.93104824  0.56897973  0.89263810    -0.06000
N51         N  0.91834017  0.59566536  0.85758723    -0.58800
N52         N  0.90465824  0.47005318  0.93144119    -0.05700
N53         N  0.87416659  0.43707605  0.92551189    -0.61300
C54         C  0.89036404  0.41505303  0.88627226     0.95500
C55         C  0.87598877  0.61302501  0.87243197     0.95300
N56         N  0.93517949  0.57903956  0.07535534    -0.06900
N57         N  0.92501182  0.60970366  0.10762121    -0.59400
N58         N  0.90698958  0.47604236  0.04410670    -0.05000
N59         N  0.87740380  0.44317809  0.05154749    -0.60700
N60         N  0.94048342  0.47882960  0.07860637    -0.06900
N61         N  0.93398364  0.44794117  0.11066710    -0.59700
N62         N  0.90062559  0.57608389  0.04184855    -0.04700
N63         N  0.86591270  0.60453500  0.05115192    -0.60700
Mn64       Mn  0.90148151  0.52325246  0.98605939     1.18400
C65         C  0.88195886  0.62569097  0.09200693     0.97600
C66         C  0.89466827  0.42577292  0.09298847     0.98200
N67         N  0.04586486  0.57598691  0.89471864    -0.06900
N68         N  0.05278011  0.60544726  0.86113043    -0.63200
N69         N  0.08599081  0.47963866  0.93416239    -0.05700
N70         N  0.11929442  0.44919550  0.92902896    -0.63900
N71         N  0.05247495  0.47593885  0.89972351    -0.06400
N72         N  0.06259311  0.44310932  0.87009177    -0.63500
N73         N  0.07945435  0.57973148  0.92916574    -0.05300
N74         N  0.10967807  0.61175411  0.91966525    -0.64200
Mn75       Mn  0.99191809  0.52234286  0.89463503     1.10700
C76         C  0.09253550  0.62783153  0.87732780     0.98800
C77         C  0.10414567  0.42658395  0.88908012     0.98900
N78         N  0.05480012  0.48470121  0.08069984    -0.06500
N79         N  0.06479414  0.45476436  0.11325246    -0.61800
N80         N  0.08229101  0.58508472  0.04406287    -0.05800
N81         N  0.11525316  0.61534617  0.05467431    -0.58600
N82         N  0.04907979  0.58465693  0.07739388    -0.07100
N83         N  0.05872074  0.61469617  0.11113357    -0.61400
N84         N  0.08794990  0.48483909  0.04732600    -0.06100
N85         N  0.12100022  0.45470110  0.05623777    -0.58600
Mn86       Mn  0.99478666  0.53187230  0.07929571     1.20200
Mn87       Mn  0.08524360  0.53258853  0.98849455     1.10100
Cl88       Cl  0.99336405  0.52771209  0.98705882    -0.86500
C89         C  0.10606298  0.43611225  0.09744172     0.95800
C90         C  0.09988887  0.63397505  0.09639977     0.95600
C91         C  0.72116905  0.21070678  0.79453737     0.85900
C92         C  0.75428155  0.24082367  0.82625292    -0.54300
C93         C  0.78329160  0.26806232  0.80056941     0.08800
C94         C  0.77662642  0.26243423  0.74525729     0.19800
C95         C  0.69343114  0.24305271  0.76245556    -0.55100
C96         C  0.72214181  0.26999492  0.73676851     0.08900
C97         C  0.75509415  0.18665523  0.76030676    -0.54600
C98         C  0.78374215  0.21341464  0.73427025     0.09500
H99         H  0.75314859  0.24209272  0.86546607     0.14000
H100        H  0.79981754  0.28436979  0.72406526    -0.00200
H101        H  0.65437393  0.24657694  0.76175679     0.14300
H102        H  0.75500295  0.15132969  0.75549459     0.14100
N103        N  0.39691134  0.04760716  0.94909728    -0.06700
N104        N  0.36411058  0.07744454  0.93854440    -0.58800
N105        N  0.42727039  0.94578940  0.91950938    -0.06400
N106        N  0.41645120  0.91501624  0.88701872    -0.61000
N107        N  0.39376705  0.94805236  0.95260700    -0.06000
N108        N  0.35894741  0.91926496  0.94266459    -0.58800
N109        N  0.42995779  0.04583292  0.91555078    -0.05700
N110        N  0.42021845  0.07456418  0.88153319    -0.61300
C111        C  0.37913336  0.09421140  0.89646732     0.95500
C112        C  0.37412089  0.89853717  0.90209831     0.95300
N113        N  0.57570156  0.94317043  0.95302666    -0.06900
N114        N  0.60819480  0.91272329  0.94390405    -0.59400
N115        N  0.54558017  0.04284921  0.91535505    -0.05000
N116        N  0.55669986  0.07098998  0.88153244    -0.60700
N117        N  0.57965759  0.04269473  0.94936734    -0.06900
N118        N  0.61437790  0.07050553  0.93964937    -0.59700
N119        N  0.54134164  0.94262403  0.91925752    -0.04700
N120        N  0.54971023  0.91161080  0.88668070    -0.60700
Mn121      Mn  0.48596862  0.99438365  0.91615011     1.18400
C122        C  0.59139316  0.89292217  0.90264233     0.97600
C123        C  0.59969320  0.08814824  0.89742760     0.98200
N124        N  0.39794865  0.95344946  0.06842010    -0.06900
N125        N  0.36585456  0.92318614  0.07932134    -0.63200
N126        N  0.43492350  0.05507765  0.09714094    -0.05700
N127        N  0.42739546  0.08744015  0.12834165    -0.63900
N128        N  0.40051622  0.05398049  0.06334123    -0.06400
N129        N  0.36925997  0.08592618  0.07051073    -0.63500
N130        N  0.43300810  0.95515196  0.10150369    -0.05300
N131        N  0.42567842  0.92611992  0.13520710    -0.64200
Mn132      Mn  0.39586428  0.00065513  0.00850915     1.10700
C133        C  0.38378863  0.90627679  0.12106663     0.98800
C134        C  0.38675173  0.10667713  0.11082815     0.98900
N135        N  0.58230866  0.04947281  0.06242760    -0.06500
N136        N  0.61597321  0.07979598  0.06847564    -0.61800
N137        N  0.54710535  0.95278616  0.10146348    -0.05800
N138        N  0.55708783  0.92478335  0.13601253    -0.58600
N139        N  0.57923433  0.94955204  0.06724295    -0.07100
N140        N  0.61170335  0.91936207  0.07776318    -0.61400
N141        N  0.55000123  0.05291907  0.09649197    -0.06100
N142        N  0.56135699  0.08562736  0.12666071    -0.58600
Mn143      Mn  0.58018703  0.99602522  0.00805662     1.20200
Mn144      Mn  0.49120102  0.00416734  0.10051020     1.10100
Cl145      Cl  0.48822096  0.99880369  0.00827935    -0.86500
C146        C  0.60255114  0.10231690  0.10849179     0.95800
C147        C  0.59734793  0.90400728  0.12070828     0.95600
C148        C  0.28019023  0.72473648  0.70128158     0.85900
C149        C  0.25286315  0.75819113  0.66994547    -0.54300
C150        C  0.22353228  0.78599513  0.69550703     0.08800
C151        C  0.22453637  0.77766425  0.75052076     0.19800
C152        C  0.30738158  0.75374507  0.73912692    -0.55100
C153        C  0.27858088  0.78086806  0.76563798     0.08900
C154        C  0.24079297  0.70165221  0.72939117    -0.54600
C155        C  0.21187539  0.72905686  0.75505818     0.09500
H156        H  0.25652717  0.75993251  0.63105800     0.14000
H157        H  0.20051619  0.79925685  0.77183449    -0.00200
H158        H  0.34649528  0.75447309  0.74338279     0.14300
H159        H  0.23713529  0.66630674  0.73031147     0.14100
N160        N  0.94559789  0.06969250  0.57706774    -0.06700
N161        N  0.93773431  0.09996649  0.61050415    -0.58800
N162        N  0.90700939  0.97051702  0.54544195    -0.06400
N163        N  0.87147568  0.94371349  0.55621755    -0.61000
N164        N  0.94152149  0.96979915  0.57902284    -0.06000
N165        N  0.93006784  0.94244390  0.61336028    -0.58800
N166        N  0.91127548  0.07016123  0.54324420    -0.05700
N167        N  0.87890101  0.10051782  0.55362313    -0.61300
C168        C  0.89629308  0.11930776  0.59537641     0.95500
C169        C  0.88644548  0.92615945  0.59852097     0.95300
N170        N  0.94041483  0.96132275  0.39860200    -0.06900
N171        N  0.92920747  0.92887070  0.36795486    -0.59400
N172        N  0.90991998  0.06449989  0.42712375    -0.05000
N173        N  0.87746036  0.09448782  0.41570019    -0.60700
N174        N  0.94332302  0.06189085  0.39393219    -0.06900
N175        N  0.93472411  0.09071373  0.35975729    -0.59700
N176        N  0.90716894  0.96489279  0.43184198    -0.04700
N177        N  0.87322203  0.93497373  0.42474266    -0.60700
Mn178      Mn  0.90775638  0.01783190  0.48673465     1.18400
C179        C  0.88725234  0.91250500  0.38496741     0.97600
C180        C  0.89372290  0.11082222  0.37395645     0.98200
N181        N  0.05775003  0.96740839  0.58060276    -0.06900
N182        N  0.06760268  0.93759408  0.61355906    -0.63200
N183        N  0.09205126  0.06782957  0.54637033    -0.05700
N184        N  0.12574267  0.09718672  0.55841153    -0.63900
N185        N  0.05832492  0.06745496  0.57917999    -0.06400
N186        N  0.06790819  0.09661745  0.61360983    -0.63500
N187        N  0.09168097  0.96776639  0.54795341    -0.05300
N188        N  0.12497644  0.93821785  0.55783656    -0.64200
Mn189      Mn  0.00082218  0.01819825  0.57989669     1.10700
C190        C  0.10963619  0.91942837  0.59868754     0.98800
C191        C  0.10984594  0.11516196  0.60036291     0.98900
N192        N  0.05755302  0.06056977  0.39532425    -0.06500
N193        N  0.06604954  0.08888260  0.36103574    -0.61800
N194        N  0.09127152  0.96315097  0.43487408    -0.05800
N195        N  0.12426268  0.93249539  0.42964193    -0.58600
N196        N  0.05770164  0.95986702  0.40039554    -0.07100
N197        N  0.06785671  0.92680331  0.37062455    -0.61400
N198        N  0.09121012  0.06351277  0.42977604    -0.06100
N199        N  0.12343983  0.09382544  0.41921448    -0.58600
Mn200      Mn  0.99972730  0.01047494  0.39557400     1.20200
Mn201      Mn  0.09270050  0.01604215  0.48964113     1.10100
Cl202      Cl  0.00023999  0.01562009  0.48789300    -0.86500
C203        C  0.10714454  0.10961817  0.37624262     0.95800
C204        C  0.10948544  0.90978808  0.38964861     0.95600
C205        C  0.70760943  0.71686328  0.29071989     0.85900
C206        C  0.74236295  0.74693698  0.32012561    -0.54300
C207        C  0.76869755  0.77525231  0.29306601     0.08800
C208        C  0.75770712  0.77022602  0.23803355     0.19800
C209        C  0.67658562  0.74883158  0.26092004    -0.55100
C210        C  0.70251199  0.77659251  0.23340162     0.08900
C211        C  0.73931026  0.69387546  0.25351958    -0.54600
C212        C  0.76530151  0.72139727  0.22583474     0.09500
H213        H  0.74516089  0.74606042  0.35932281     0.14000
H214        H  0.77822882  0.79276531  0.21512825    -0.00200
H215        H  0.63758144  0.75104047  0.26152548     0.14300
H216        H  0.74052829  0.65855206  0.24888101     0.14100
C217        C  0.21013983  0.29879692  0.20159176     0.85900
C218        C  0.24331986  0.32085321  0.23984172    -0.54300
C219        C  0.26848065  0.29264453  0.26832665     0.08800
C220        C  0.25859512  0.24424295  0.25620511     0.19800
C221        C  0.24374330  0.26760896  0.17349752    -0.55100
C222        C  0.26933800  0.23915401  0.20188618     0.08900
C223        C  0.17798683  0.26772817  0.23019611    -0.54600
C224        C  0.20302389  0.23896709  0.25889588     0.09500
H225        H  0.24674851  0.35612011  0.24404100     0.14000
H226        H  0.27968278  0.22203883  0.27988762    -0.00200
H227        H  0.24603442  0.26604063  0.13454303     0.14300
H228        H  0.13871988  0.26913531  0.22836781     0.14100
C229        C  0.78480217  0.29661227  0.19787013     0.85900
C230        C  0.81730245  0.26420348  0.22504535    -0.54300
C231        C  0.79330155  0.23680305  0.25485243     0.08800
C232        C  0.73778401  0.24308354  0.25291479     0.19800
C233        C  0.74757430  0.26738976  0.17035182    -0.55100
C234        C  0.72353409  0.23849128  0.19853310     0.08900
C235        C  0.75527977  0.31951649  0.23713715    -0.54600
C236        C  0.73079955  0.29181170  0.26595525     0.09500
H237        H  0.85623104  0.26321212  0.22057933     0.14000
H238        H  0.71821223  0.22099074  0.27707765    -0.00200
H239        H  0.74034407  0.26855419  0.13187831     0.14300
H240        H  0.75415239  0.35480905  0.24206178     0.14100
C241        C  0.28798649  0.71440658  0.29570297     0.85900
C242        C  0.31853766  0.74592713  0.26583750    -0.54300
C243        C  0.29253842  0.77594777  0.24007128     0.08800
C244        C  0.23734196  0.77120938  0.24601212     0.19800
C245        C  0.25683715  0.74533709  0.32694245    -0.55100
C246        C  0.22958956  0.77487586  0.30108977     0.08900
C247        C  0.25222761  0.69379410  0.25875941    -0.54600
C248        C  0.22602406  0.72325068  0.23270362     0.09500
H249        H  0.35733476  0.74483483  0.26450979     0.14000
H250        H  0.21600131  0.79488503  0.22459587    -0.00200
H251        H  0.25606549  0.74345780  0.36606960     0.14300
H252        H  0.24826836  0.65870816  0.25326841     0.14100
C253        C  0.21841322  0.29246933  0.79319633     0.85900
C254        C  0.18738594  0.26472311  0.75766337    -0.54300
C255        C  0.21264508  0.23518882  0.73067725     0.08800
C256        C  0.26770360  0.23613342  0.74168490     0.19800
C257        C  0.24587986  0.25836271  0.82354621    -0.55100
C258        C  0.27136507  0.22867848  0.79673145     0.08900
C259        C  0.25724817  0.31320839  0.76245415    -0.54600
C260        C  0.28321337  0.28415817  0.73567414     0.09500
H261        H  0.14833225  0.26822476  0.75434954     0.14000
H262        H  0.28866249  0.21229825  0.71986751    -0.00200
H263        H  0.24509013  0.25652870  0.86254787     0.14300
H264        H  0.26375919  0.34823908  0.76192082     0.14100
C265        C  0.76999991  0.80439241  0.70812571     0.85900
C266        C  0.79941676  0.77079334  0.73736786    -0.54300
C267        C  0.77207997  0.74210110  0.76222848     0.08800
C268        C  0.71726318  0.74938072  0.75609608     0.19800
C269        C  0.73616304  0.77553357  0.67593849    -0.55100
C270        C  0.70887672  0.74631124  0.70078645     0.08900
C271        C  0.73692372  0.82627104  0.74486716    -0.54600
C272        C  0.70944948  0.79779527  0.76996499     0.09500
H273        H  0.83845203  0.76780355  0.73711815     0.14000
H274        H  0.69522026  0.72614183  0.77682369    -0.00200
H275        H  0.73555580  0.77680710  0.63672573     0.14300
H276        H  0.73573123  0.86142389  0.75100158     0.14100
C277        C  0.20679929  0.19309342  0.65177350    -0.21900
C278        C  0.18770046  0.20352589  0.69719478    -0.09900
C279        C  0.14362204  0.18428793  0.71021350     0.28900
C280        C  0.11861513  0.15659646  0.67792544    -0.21900
C281        C  0.13709906  0.14645072  0.63220404    -0.09900
C282        C  0.18173181  0.16477890  0.61936949     0.28900
F283        F  0.20106066  0.15555245  0.57569875    -0.20500
H284        H  0.24069091  0.20742935  0.64104238     0.17300
H285        H  0.08483627  0.14246991  0.68934642     0.17300
F286        F  0.12513572  0.19109228  0.75481356    -0.20500
C287        C  0.11355781  0.15327235  0.30101387    -0.21900
C288        C  0.13226550  0.14303798  0.34716765    -0.09900
C289        C  0.17496856  0.16428664  0.36388290     0.28900
C290        C  0.19781172  0.19523203  0.33506213    -0.21900
C291        C  0.17871736  0.20566309  0.28907337    -0.09900
C292        C  0.13643908  0.18386631  0.27219862     0.28900
F293        F  0.11790122  0.19085969  0.22710327    -0.20500
H294        H  0.08121540  0.13712543  0.28670503     0.17300
H295        H  0.23014530  0.21153863  0.34913047     0.17300
F296        F  0.19466954  0.15539658  0.40803813    -0.20500
C297        C  0.80722338  0.89056528  0.61621014    -0.21900
C298        C  0.85685472  0.89608085  0.62705020    -0.09900
C299        C  0.87737123  0.87381036  0.66638098     0.28900
C300        C  0.84931666  0.84537905  0.69296653    -0.21900
C301        C  0.80014044  0.83741676  0.68057275    -0.09900
C302        C  0.77890412  0.86231374  0.64319357     0.28900
F303        F  0.73070699  0.85953228  0.63272077    -0.20500
H304        H  0.79007731  0.90858581  0.58713817     0.17300
H305        H  0.86673129  0.83069762  0.72394835     0.17300
F306        F  0.92477567  0.87919758  0.67927417    -0.20500
C307        C  0.20930637  0.82601369  0.36998752    -0.21900
C308        C  0.19693640  0.80800168  0.32421994    -0.09900
C309        C  0.15384127  0.82249705  0.30105421     0.28900
C310        C  0.12511880  0.85494720  0.32266533    -0.21900
C311        C  0.13824938  0.87348794  0.36793450    -0.09900
C312        C  0.18046072  0.85801921  0.39171184     0.28900
F313        F  0.19448282  0.87401155  0.43597984    -0.20500
H314        H  0.24213916  0.81606522  0.38885934     0.17300
H315        H  0.09265749  0.86576407  0.30371637     0.17300
F316        F  0.13845722  0.80478449  0.25807632    -0.20500
C317        C  0.87080731  0.85860607  0.31656636    -0.21900
C318        C  0.85804571  0.87670324  0.36159825    -0.09900
C319        C  0.81610911  0.86101408  0.38364761     0.28900
C320        C  0.78763378  0.82860265  0.36091713    -0.21900
C321        C  0.80023197  0.81017532  0.31594016    -0.09900
C322        C  0.84234377  0.82569619  0.29389271     0.28900
F323        F  0.85696943  0.80852416  0.25113401    -0.20500
H324        H  0.90287845  0.86998214  0.29875838     0.17300
H325        H  0.75502793  0.81845022  0.37861576     0.17300
F326        F  0.80220720  0.87689296  0.42733647    -0.20500
C327        C  0.79707751  0.16461511  0.29650142    -0.21900
C328        C  0.81884266  0.20495914  0.28662862    -0.09900
C329        C  0.86500368  0.21444856  0.30743628     0.28900
C330        C  0.88931720  0.18346325  0.33547602    -0.21900
C331        C  0.86748329  0.14333306  0.34493881    -0.09900
C332        C  0.82092593  0.13422595  0.32584410     0.28900
F333        F  0.79925434  0.09531918  0.33422661    -0.20500
H334        H  0.76195347  0.15612134  0.28080565     0.17300
H335        H  0.92493312  0.19112611  0.35063380     0.17300
F336        F  0.88619203  0.25408745  0.30215237    -0.20500
C337        C  0.14719018  0.83030930  0.68694676    -0.21900
C338        C  0.19459469  0.82125579  0.67218182    -0.09900
C339        C  0.21391991  0.84579805  0.63458853     0.28900
C340        C  0.18584725  0.87729904  0.61122884    -0.21900
C341        C  0.13808573  0.88580503  0.62505444    -0.09900
C342        C  0.11908905  0.86231425  0.66371751     0.28900
F343        F  0.07323104  0.86957025  0.67850724    -0.20500
H344        H  0.13146218  0.81191232  0.71580805     0.17300
H345        H  0.20191826  0.89541408  0.58233773     0.17300
F346        F  0.26049202  0.84028630  0.62109296    -0.20500
C347        C  0.62137368  0.15466808  0.17768622    -0.21900
C348        C  0.63189435  0.13815526  0.13130697    -0.09900
C349        C  0.67218234  0.15499227  0.10758136     0.28900
C350        C  0.70152900  0.18678554  0.13009002    -0.21900
C351        C  0.69125812  0.20370841  0.17645680    -0.09900
C352        C  0.65070925  0.18703688  0.20018012     0.28900
F353        F  0.63864139  0.20225016  0.24460407    -0.20500
H354        H  0.59060334  0.14224486  0.19681893     0.17300
H355        H  0.73304592  0.19758201  0.11101451     0.17300
F356        F  0.68365495  0.14076855  0.06247842    -0.20500
C357        C  0.32909800  0.21549364  0.13947502    -0.21900
C358        C  0.30270202  0.20586051  0.18103632    -0.09900
C359        C  0.30670549  0.16372679  0.20053035     0.28900
C360        C  0.33590408  0.13215687  0.17849510    -0.21900
C361        C  0.36059020  0.14161200  0.13621987    -0.09900
C362        C  0.35725225  0.18351477  0.11686888     0.28900
F363        F  0.38101180  0.19339403  0.07601031    -0.20500
H364        H  0.32751962  0.24773217  0.12400148     0.17300
H365        H  0.33765061  0.09963348  0.19330405     0.17300
F366        F  0.28024762  0.15192859  0.23893864    -0.20500
C367        C  0.38448225  0.85630624  0.19095446    -0.21900
C368        C  0.35998155  0.87235973  0.14999864    -0.09900
C369        C  0.31290845  0.85693502  0.13895234     0.28900
C370        C  0.29146631  0.82549409  0.16802979    -0.21900
C371        C  0.31592965  0.80951111  0.20933604    -0.09900
C372        C  0.36279142  0.82596792  0.22068247     0.28900
F373        F  0.38745041  0.81456413  0.26154033    -0.20500
H374        H  0.42049984  0.86796621  0.20082849     0.17300
H375        H  0.25578712  0.81348152  0.15768065     0.17300
F376        F  0.28721415  0.87259376  0.10060462    -0.20500
C377        C  0.59884802  0.84182050  0.83145821    -0.21900
C378        C  0.61974801  0.86138948  0.87344487    -0.09900
C379        C  0.66925397  0.85419478  0.88403565     0.28900
C380        C  0.69766595  0.83079601  0.85140815    -0.21900
C381        C  0.67722785  0.81356255  0.80829564    -0.09900
C382        C  0.62734397  0.81795699  0.79912822     0.28900
F383        F  0.60694851  0.80188453  0.75733955    -0.18500
H384        H  0.56085247  0.84662438  0.82253144     0.17300
H385        H  0.73624454  0.82784166  0.85866862     0.17300
F386        F  0.69110858  0.87213997  0.92416799    -0.20500
C387        C  0.30379518  0.13690026  0.88166259    -0.21900
C388        C  0.35156222  0.12734024  0.86883583    -0.09900
C389        C  0.37177187  0.14941089  0.82976812     0.28900
C390        C  0.34503149  0.18149266  0.80536105    -0.21900
C391        C  0.29791962  0.19198065  0.81948396    -0.09900
C392        C  0.27705639  0.16852253  0.85710834     0.28900
F393        F  0.23050287  0.17573367  0.86983365    -0.20500
H394        H  0.28687219  0.11972942  0.91077253     0.17300
H395        H  0.36169154  0.19911390  0.77642683     0.17300
F396        F  0.41771486  0.14097041  0.81600290    -0.20500
C397        C  0.63969090  0.83419462  0.22491272    -0.21900
C398        C  0.67813608  0.81083406  0.20455610    -0.09900
C399        C  0.69049049  0.81868464  0.15647179     0.28900
C400        C  0.66406478  0.84904854  0.12922126    -0.21900
C401        C  0.62489988  0.87175791  0.14946661    -0.09900
C402        C  0.61315425  0.86410286  0.19780025     0.28900
F403        F  0.57624971  0.88563912  0.21927069    -0.20500
H404        H  0.62995204  0.82914590  0.26214213     0.17300
H405        H  0.67384572  0.85435533  0.09206170     0.17300
F406        F  0.72657333  0.79581845  0.13523010    -0.20500
C407        C  0.33959136  0.79608981  0.83236443    -0.21900
C408        C  0.29907433  0.81002789  0.80482870    -0.09900
C409        C  0.28083884  0.85236914  0.81340270     0.28900
C410        C  0.30365309  0.88022893  0.84775705    -0.21900
C411        C  0.34537779  0.86669129  0.87317857    -0.09900
C412        C  0.36302619  0.82434625  0.86553978     0.28900
F413        F  0.40358713  0.81066781  0.88944105    -0.20500
H414        H  0.35398330  0.76346394  0.82744359     0.17300
H415        H  0.29038497  0.91328494  0.85253273     0.17300
F416        F  0.24332592  0.86810619  0.78641699    -0.20500
C417        C  0.81800586  0.15153010  0.62110643    -0.21900
C418        C  0.86864817  0.14991769  0.62623277    -0.09900
C419        C  0.89156556  0.17378168  0.66450681     0.28900
C420        C  0.86389491  0.19692184  0.69821551    -0.21900
C421        C  0.81324871  0.19587029  0.69462739    -0.09900
C422        C  0.79047654  0.17387025  0.65528070     0.28900
F423        F  0.74140336  0.17260979  0.65105529    -0.20500
H424        H  0.79945501  0.13340830  0.59218906     0.17300
H425        H  0.88184340  0.21375944  0.72844706     0.17300
F426        F  0.94052356  0.17359276  0.67027512    -0.20500
C427        C  0.64180882  0.16826460  0.80404966    -0.21900
C428        C  0.68890610  0.17916435  0.82167895    -0.09900
C429        C  0.70700329  0.15680375  0.86235915     0.28900
C430        C  0.67742165  0.12798719  0.88696102    -0.21900
C431        C  0.62970398  0.11924643  0.87071682    -0.09900
C432        C  0.61238179  0.13918620  0.82847382     0.28900
F433        F  0.56721324  0.13042959  0.81034374    -0.20500
H434        H  0.62751065  0.18106005  0.77051180     0.17300
H435        H  0.69237593  0.11188646  0.91850708     0.17300
F436        F  0.75364819  0.16194616  0.87798470    -0.20500
C437        C  0.12386627  0.39344687  0.17193175    -0.21900
C438        C  0.13204009  0.40061222  0.12281812    -0.09900
C439        C  0.16537085  0.37391553  0.09868926     0.28900
C440        C  0.18963819  0.34052226  0.12316804    -0.21900
C441        C  0.18170385  0.33299008  0.17263841    -0.09900
C442        C  0.14868003  0.36055836  0.19671861     0.28900
F443        F  0.14111030  0.35633364  0.24477118    -0.20500
H444        H  0.09887395  0.41398641  0.19158006     0.17300
H445        H  0.21540242  0.32188459  0.10277066     0.17300
F446        F  0.17448424  0.37980974  0.05120244    -0.20500
C447        C  0.11258346  0.67710060  0.17329955    -0.21900
C448        C  0.12942849  0.66435380  0.12750494    -0.09900
C449        C  0.17651415  0.67693776  0.11460869     0.28900
C450        C  0.20692538  0.69892960  0.14821373    -0.21900
C451        C  0.19084848  0.70893620  0.19478541    -0.09900
C452        C  0.14310049  0.69902409  0.20678630     0.28900
F453        F  0.12701938  0.70814335  0.25187762    -0.20500
H454        H  0.07652655  0.66814353  0.18420030     0.17300
H455        H  0.24389063  0.70625390  0.13873211     0.17300
F456        F  0.19425863  0.66594145  0.07067876    -0.20500
C457        C  0.80202111  0.65640626  0.11552285    -0.21900
C458        C  0.85268969  0.65647033  0.12105686    -0.09900
C459        C  0.87446362  0.68274736  0.15796612     0.28900
C460        C  0.84579986  0.70662647  0.19010286    -0.21900
C461        C  0.79522806  0.70418839  0.18627510    -0.09900
C462        C  0.77346653  0.67966770  0.14815809     0.28900
F463        F  0.72447955  0.67667374  0.14392216    -0.20500
H464        H  0.78434517  0.63638782  0.08761459     0.17300
H465        H  0.86303573  0.72491115  0.21967729     0.17300
F466        F  0.92336287  0.68411672  0.16413526    -0.20500
C467        C  0.10324346  0.66926851  0.80091974    -0.21900
C468        C  0.11853006  0.66071815  0.84874289    -0.09900
C469        C  0.16135414  0.68078739  0.86708499     0.28900
C470        C  0.18976609  0.70610876  0.83706483    -0.21900
C471        C  0.17610006  0.71179531  0.78852667    -0.09900
C472        C  0.13198017  0.69440527  0.77088470     0.28900
F473        F  0.11801232  0.69992545  0.72398688    -0.20500
H474        H  0.07030065  0.65466313  0.78594591     0.17300
H475        H  0.22396179  0.71918858  0.85092299     0.17300
F476        F  0.17724565  0.67421020  0.91320682    -0.20500
C477        C  0.85764251  0.65067373  0.79520856    -0.21900
C478        C  0.84631018  0.64370002  0.84366132    -0.09900
C479        C  0.80691328  0.66632538  0.86376782     0.28900
C480        C  0.78128856  0.69710685  0.83642668    -0.21900
C481        C  0.79447627  0.70554914  0.78885772    -0.09900
C482        C  0.83178951  0.68094912  0.76787406     0.28900
F483        F  0.84338450  0.68627801  0.72086233    -0.20500
H484        H  0.88683475  0.63284530  0.77840900     0.17300
H485        H  0.75244722  0.71558539  0.85301109     0.17300
F486        F  0.79417902  0.65993188  0.91023550    -0.20500
C487        C  0.12886325  0.38532455  0.81591198    -0.21900
C488        C  0.13221628  0.39146205  0.86612453    -0.09900
C489        C  0.16434113  0.36559481  0.89329945     0.28900
C490        C  0.19199442  0.33346408  0.87044061    -0.21900
C491        C  0.18866618  0.32686255  0.81982303    -0.09900
C492        C  0.15747173  0.35426539  0.79283096     0.28900
F493        F  0.15473995  0.35122709  0.74377942    -0.20500
H494        H  0.10513403  0.40564464  0.79417323     0.17300
H495        H  0.21662570  0.31506086  0.89292505     0.17300
F496        F  0.16889739  0.37113998  0.94203172    -0.20500
C497        C  0.80937767  0.33258009  0.11811236    -0.21900
C498        C  0.81451002  0.32875458  0.16877526    -0.09900
C499        C  0.84904487  0.35574603  0.19332075     0.28900
C500        C  0.87644526  0.38594017  0.16824131    -0.21900
C501        C  0.86977277  0.39047056  0.11823524    -0.09900
C502        C  0.83647452  0.36307335  0.09321888     0.28900
F503        F  0.82992923  0.36566810  0.04449663    -0.20500
H504        H  0.78453624  0.31271015  0.09671933     0.17300
H505        H  0.90181617  0.40679541  0.18830818     0.17300
F506        F  0.85584850  0.35336488  0.24200099    -0.20500
C507        C  0.85861912  0.31447884  0.80758571    -0.21900
C508        C  0.81193143  0.30455065  0.82350686    -0.09900
C509        C  0.79169060  0.33121417  0.85973925     0.28900
C510        C  0.81789013  0.36638157  0.87998259    -0.21900
C511        C  0.86464194  0.37644982  0.86436135    -0.09900
C512        C  0.88493949  0.34997786  0.82787310     0.28900
F513        F  0.93017183  0.35807593  0.81202861    -0.20500
H514        H  0.87482065  0.29455495  0.77954266     0.17300
H515        H  0.80089578  0.38640549  0.90744132     0.17300
F516        F  0.74561067  0.32466364  0.87415526    -0.20500
C517        C  0.67549872  0.65207623  0.61504075    -0.21900
C518        C  0.63161417  0.63735201  0.63362665    -0.09900
C519        C  0.61247835  0.65953495  0.67402653     0.28900
C520        C  0.63719884  0.69546219  0.69518846    -0.21900
C521        C  0.68119548  0.70996942  0.67648689    -0.09900
C522        C  0.70024536  0.68756903  0.63626765     0.28900
F523        F  0.74416782  0.69829572  0.61882991    -0.20500
H524        H  0.69154479  0.63539453  0.58449499     0.17300
H525        H  0.62195861  0.71191512  0.72630644     0.17300
F526        F  0.57024936  0.64643287  0.69340653    -0.20500
C527        C  0.31641466  0.29863731  0.65435439    -0.21900
C528        C  0.32252051  0.29962841  0.70481340    -0.09900
C529        C  0.36155384  0.32317695  0.72591842     0.28900
C530        C  0.39179271  0.34803797  0.69720736    -0.21900
C531        C  0.38309106  0.35043268  0.64704968    -0.09900
C532        C  0.34638890  0.32391606  0.62553406     0.28900
F533        F  0.33794453  0.32399586  0.57697371    -0.20500
H534        H  0.28632489  0.28083901  0.63758666     0.17300
H535        H  0.41999290  0.36769650  0.71472842     0.17300
F536        F  0.36839644  0.32434873  0.77472702    -0.20500
C537        C  0.72524742  0.33007523  0.34602942    -0.21900
C538        C  0.70194836  0.30856696  0.30666847    -0.09900
C539        C  0.65124754  0.30867106  0.30326543     0.28900
C540        C  0.62439829  0.33207557  0.33729104    -0.21900
C541        C  0.64760752  0.35574440  0.37534359    -0.09900
C542        C  0.69841025  0.35315081  0.38048249     0.28900
F543        F  0.72245977  0.37518777  0.41670778    -0.20500
H544        H  0.76445132  0.33045975  0.34890464     0.17300
H545        H  0.58538126  0.33332444  0.33252723     0.17300
F546        F  0.62786364  0.28913661  0.26496602    -0.20500
C547        C  0.31866610  0.62124620  0.38396169    -0.21900
C548        C  0.36740678  0.61226817  0.37414634    -0.09900
C549        C  0.39016842  0.63645600  0.33849230     0.28900
C550        C  0.36506471  0.66908293  0.31370996    -0.21900
C551        C  0.31639318  0.67937319  0.32400719    -0.09900
C552        C  0.29321014  0.65377906  0.35876492     0.28900
F553        F  0.24556539  0.65962238  0.36795631    -0.20500
H554        H  0.29985715  0.60245604  0.41052987     0.17300
H555        H  0.38432220  0.68453834  0.28542866     0.17300
F556        F  0.43698621  0.62867135  0.32714274    -0.20500
C557        C  0.68302423  0.62557496  0.38038404    -0.21900
C558        C  0.63276751  0.61964225  0.37532055    -0.09900
C559        C  0.60632876  0.64628252  0.34370932     0.28900
C560        C  0.62978917  0.67801186  0.31719415    -0.21900
C561        C  0.68047713  0.68411738  0.32145400    -0.09900
C562        C  0.70678014  0.65693000  0.35334257     0.28900
F563        F  0.75575572  0.66007314  0.35771139    -0.20500
H564        H  0.70422834  0.60499109  0.40425883     0.17300
H565        H  0.60736118  0.69622289  0.29251038     0.17300
F566        F  0.55755118  0.64181090  0.33840678    -0.20500
C567        C  0.68947354  0.34532651  0.63384652    -0.21900
C568        C  0.65017838  0.36809636  0.65371120    -0.09900
C569        C  0.63813326  0.36098616  0.70205119     0.28900
C570        C  0.66357063  0.33055885  0.72915941    -0.21900
C571        C  0.70103456  0.30609212  0.70872177    -0.09900
C572        C  0.71483024  0.31434404  0.66118585     0.28900
F573        F  0.75087252  0.29102465  0.64046389    -0.20500
H574        H  0.69965079  0.35059433  0.59679372     0.17300
H575        H  0.65324817  0.32545671  0.76621976     0.17300
F576        F  0.60155381  0.38313136  0.72335188    -0.20500
C577        C  0.32437430  0.63852990  0.60883366    -0.21900
C578        C  0.36719311  0.62342762  0.63132825    -0.09900
C579        C  0.38173123  0.64201386  0.67613772     0.28900
C580        C  0.35420711  0.67493380  0.69763566    -0.21900
C581        C  0.31204612  0.69153967  0.67465641    -0.09900
C582        C  0.29667441  0.67157492  0.63041333     0.28900
F583        F  0.25394872  0.68253630  0.60869886    -0.20500
H584        H  0.31158140  0.62403657  0.57485039     0.17300
H585        H  0.36551108  0.68592432  0.73348386     0.17300
F586        F  0.42165481  0.62740149  0.70037899    -0.20500
C587        C  0.35195150  0.30220461  0.30361374    -0.21900
C588        C  0.30185761  0.30868860  0.30706893    -0.09900
C589        C  0.28408666  0.33528807  0.34442336     0.28900
C590        C  0.31606242  0.35619259  0.37702044    -0.21900
C591        C  0.36637809  0.35202815  0.37209093    -0.09900
C592        C  0.38422664  0.32421025  0.33558084     0.28900
F593        F  0.43262465  0.31913899  0.33013773    -0.20500
H594        H  0.36605141  0.28200462  0.27462412     0.17300
H595        H  0.30133647  0.37761897  0.40457821     0.17300
F596        F  0.23577467  0.34236065  0.34818102    -0.20500
loop_ 
_geom_bond_atom_site_label_1 
_geom_bond_atom_site_label_2 
_geom_bond_distance 
_geom_bond_site_symmetry_2 
_ccdc_geom_bond_type 
N1            N2   1.323       .  A
N1            N7   1.315       .  A
N1          Mn30   2.210       .  S
N2            C9   1.355       .  A
N3            N5   1.316       .  A
N3            N4   1.322       .  A
N3          Mn19   2.203       .  S
N4           C10   1.354       .  A
N5            N6   1.321       .  A
N5          Mn30   2.213       .  S
N6           C10   1.356       .  A
N7            N8   1.317       .  A
N7          Mn19   2.189       .  S
N8            C9   1.351       .  A
C9          C591   1.477       .  S
C10         C548   1.486       .  S
N11          N17   1.314       .  A
N11          N12   1.321       .  A
N11         Mn41   2.209       .  S
N12          C20   1.356       .  A
N13          N14   1.321       .  A
N13          N15   1.316       .  A
N13         Mn19   2.207       .  S
N14          C21   1.354       .  A
N15          N16   1.322       .  A
N15         Mn41   2.213       .  S
N16          C21   1.356       .  A
N17          N18   1.320       .  A
N17         Mn19   2.195       .  S
N18          C20   1.353       .  A
Mn19        Cl43   2.547       .  S
C20         C578   1.484       .  S
C21         C531   1.485       .  S
N22          N23   1.320       .  A
N22          N28   1.315       .  A
N22         Mn30   2.211       .  S
N23          C31   1.355       .  A
N24          N26   1.317       .  A
N24          N25   1.324       .  A
N24         Mn42   2.219       .  S
N25          C32   1.357       .  A
N26          N27   1.319       .  A
N26         Mn30   2.206       .  S
N27          C32   1.352       .  A
N28          N29   1.319       .  A
N28         Mn42   2.182       .  S
N29          C31   1.350       .  A
Mn30        Cl43   2.541       .  S
C31         C558   1.473       .  S
C32         C541   1.486       .  S
N33          N34   1.316       .  A
N33          N39   1.316       .  A
N33         Mn41   2.200       .  S
N34          C44   1.352       .  A
N35          N36   1.320       .  A
N35          N37   1.317       .  A
N35         Mn42   2.214       .  S
N36          C45   1.354       .  A
N37          N38   1.323       .  A
N37         Mn41   2.207       .  S
N38          C45   1.355       .  A
N39          N40   1.320       .  A
N39         Mn42   2.187       .  S
N40          C44   1.352       .  A
Mn41        Cl43   2.548       .  S
Mn42        Cl43   2.554       .  S
C44         C568   1.473       .  S
C45         C518   1.486       .  S
N46          N47   1.326       .  A
N46          N52   1.315       .  A
N46         Mn75   2.221       .  S
N47          C54   1.359       .  A
N48          N50   1.316       .  A
N48          N49   1.319       .  A
N48         Mn64   2.192       .  S
N49          C55   1.352       .  A
N50          N51   1.320       .  A
N50         Mn75   2.207       .  S
N51          C55   1.355       .  A
N52          N53   1.318       .  A
N52         Mn64   2.204       .  S
N53          C54   1.352       .  A
C54         C511   1.489       .  S
C55         C478   1.478       .  S
N56          N62   1.316       .  A
N56          N57   1.318       .  A
N56         Mn86   2.193       .  S
N57          C65   1.351       .  A
N58          N59   1.316       .  A
N58          N60   1.314       .  A
N58         Mn64   2.181   1_554  S
N59          C66   1.349       .  A
N60          N61   1.322       .  A
N60         Mn86   2.207       .  S
N61          C66   1.356       .  A
N62          N63   1.323       .  A
N62         Mn64   2.215   1_554  S
N63          C65   1.357       .  A
Mn64        Cl88   2.540       .  S
C65         C458   1.480       .  S
C66         C501   1.474       .  S
N67          N68   1.322       .  A
N67          N73   1.317       .  A
N67         Mn75   2.214   1_455  S
N68          C76   1.356       .  A
N69          N71   1.315       .  A
N69          N70   1.318       .  A
N69         Mn87   2.190       .  S
N70          C77   1.350       .  A
N71          N72   1.319       .  A
N71         Mn75   2.199   1_455  S
N72          C77   1.353       .  A
N73          N74   1.320       .  A
N73         Mn87   2.206       .  S
N74          C76   1.353       .  A
Mn75        Cl88   2.557       .  S
C76         C468   1.484       .  S
C77         C488   1.470       .  S
N78          N79   1.320       .  A
N78          N84   1.315       .  A
N78         Mn86   2.200   1_455  S
N79          C89   1.354       .  A
N80          N81   1.321       .  A
N80          N82   1.315       .  A
N80         Mn87   2.206   1_554  S
N81          C90   1.355       .  A
N82          N83   1.320       .  A
N82         Mn86   2.203   1_455  S
N83          C90   1.354       .  A
N84          N85   1.321       .  A
N84         Mn87   2.205   1_554  S
N85          C89   1.354       .  A
Mn86        Cl88   2.550   1_554  S
Mn87        Cl88   2.540   1_455  S
C89         C438   1.481       .  S
C90         C448   1.485       .  S
C91          C92   1.544       .  S
C91          C97   1.528       .  S
C91          C95   1.535       .  S
C91         C428   1.530       .  S
C92          H99   1.085       .  S
C92          C93   1.373       .  D
C93          C94   1.542       .  S
C93         C508   1.491       .  S
C94          C98   1.539       .  S
C94          C96   1.536       .  S
C94         H100   1.110       .  S
C95         H101   1.084       .  S
C95          C96   1.362       .  D
C96         C571   1.474       .  S
C97         H102   1.087       .  S
C97          C98   1.363       .  D
C98         C421   1.475       .  S
N103        N104   1.319       .  A
N103        N109   1.316       .  A
N103       Mn132   2.202   1_556  S
N104        C111   1.353       .  A
N105        N107   1.317       .  A
N105        N106   1.319       .  A
N105       Mn121   2.202       .  S
N106        C112   1.350       .  A
N107        N108   1.323       .  A
N107       Mn132   2.211   1_566  S
N108        C112   1.354       .  A
N109        N110   1.322       .  A
N109       Mn121   2.209   1_545  S
N110        C111   1.354       .  A
C111        C388   1.481       .  S
C112        C411   1.469       .  S
N113        N119   1.315       .  A
N113        N114   1.320       .  A
N113       Mn143   2.202   1_556  S
N114        C122   1.354       .  A
N115        N116   1.323       .  A
N115        N117   1.315       .  A
N115       Mn121   2.214   1_545  S
N116        C123   1.358       .  A
N117        N118   1.316       .  A
N117       Mn143   2.180   1_546  S
N118        C123   1.349       .  A
N119        N120   1.321       .  A
N119       Mn121   2.205       .  S
N120        C122   1.354       .  A
Mn121      Cl145   2.547   1_556  S
C122        C378   1.483       .  S
C123        C431   1.479       .  S
N124        N125   1.324       .  A
N124        N130   1.316       .  A
N124       Mn132   2.216   1_565  S
N125        C133   1.356       .  A
N126        N128   1.317       .  A
N126        N127   1.322       .  A
N126       Mn144   2.204       .  S
N127        C134   1.352       .  A
N128        N129   1.321       .  A
N128       Mn132   2.209       .  S
N129        C134   1.352       .  A
N130        N131   1.317       .  A
N130       Mn144   2.197   1_565  S
N131        C133   1.352       .  A
Mn132      Cl145   2.551   1_545  S
C133        C368   1.483       .  S
C134        C361   1.469       .  S
N135        N136   1.318       .  A
N135        N141   1.315       .  A
N135       Mn143   2.201   1_545  S
N136        C146   1.352       .  A
N137        N138   1.319       .  A
N137        N139   1.314       .  A
N137       Mn144   2.206   1_565  S
N138        C147   1.354       .  A
N139        N140   1.320       .  A
N139       Mn143   2.187       .  S
N140        C147   1.352       .  A
N141        N142   1.324       .  A
N141       Mn144   2.208       .  S
N142        C146   1.356       .  A
Mn143      Cl145   2.541       .  S
Mn144      Cl145   2.551   1_545  S
C146        C348   1.485       .  S
C147        C401   1.479       .  S
C148        C149   1.540       .  S
C148        C154   1.530       .  S
C148        C152   1.541       .  S
C148        C581   1.534       .  S
C149        H156   1.084       .  S
C149        C150   1.374       .  D
C150        C151   1.546       .  S
C150        C338   1.491       .  S
C151        C155   1.535       .  S
C151        C153   1.543       .  S
C151        H157   1.109       .  S
C152        H158   1.084       .  S
C152        C153   1.366       .  D
C153        C408   1.492       .  S
C154        H159   1.087       .  S
C154        C155   1.361       .  D
C155        C471   1.472       .  S
N160        N161   1.319       .  A
N160        N166   1.316       .  A
N160       Mn189   2.196   1_655  S
N161        C168   1.350       .  A
N162        N164   1.315       .  A
N162        N163   1.320       .  A
N162       Mn178   2.194   1_565  S
N163        C169   1.352       .  A
N164        N165   1.320       .  A
N164       Mn189   2.205   1_665  S
N165        C169   1.354       .  A
N166        N167   1.323       .  A
N166       Mn178   2.217       .  S
N167        C168   1.358       .  A
C168        C418   1.481       .  S
C169        C298   1.479       .  S
N170        N176   1.317       .  A
N170        N171   1.325       .  A
N170       Mn200   2.225   1_565  S
N171        C179   1.358       .  A
N172        N173   1.321       .  A
N172        N174   1.318       .  A
N172       Mn178   2.201       .  S
N173        C180   1.351       .  A
N174        N175   1.322       .  A
N174       Mn200   2.216       .  S
N175        C180   1.353       .  A
N176        N177   1.318       .  A
N176       Mn178   2.200   1_565  S
N177        C179   1.351       .  A
Mn178      Cl202   2.554   1_655  S
C179        C318   1.488       .  S
C180        C331   1.470       .  S
N181        N182   1.325       .  A
N181        N187   1.316       .  A
N181       Mn189   2.213   1_565  S
N182        C190   1.357       .  A
N183        N185   1.315       .  A
N183        N184   1.325       .  A
N183       Mn201   2.210       .  S
N184        C191   1.357       .  A
N185        N186   1.315       .  A
N185       Mn189   2.188       .  S
N186        C191   1.350       .  A
N187        N188   1.318       .  A
N187       Mn201   2.206   1_565  S
N188        C190   1.352       .  A
Mn189      Cl202   2.543       .  S
C190        C341   1.487       .  S
C191        C281   1.481       .  S
N192        N193   1.320       .  A
N192        N198   1.317       .  A
N192       Mn200   2.211   1_455  S
N193        C203   1.354       .  A
N194        N195   1.317       .  A
N194        N196   1.316       .  A
N194       Mn201   2.196   1_565  S
N195        C204   1.350       .  A
N196        N197   1.327       .  A
N196       Mn200   2.233   1_465  S
N197        C204   1.361       .  A
N198        N199   1.325       .  A
N198       Mn201   2.221       .  S
N199        C203   1.358       .  A
Mn200      Cl202   2.554   1_655  S
Mn201      Cl202   2.552       .  S
C203        C288   1.492       .  S
C204        C311   1.492       .  S
C205        C206   1.537       .  S
C205        C211   1.529       .  S
C205        C209   1.539       .  S
C205        C561   1.531       .  S
C206        H213   1.085       .  S
C206        C207   1.373       .  D
C207        C208   1.549       .  S
C207        C321   1.499       .  S
C208        C212   1.542       .  S
C208        C210   1.539       .  S
C208        H214   1.108       .  S
C209        H215   1.080       .  S
C209        C210   1.363       .  D
C210        C398   1.481       .  S
C211        H216   1.087       .  S
C211        C212   1.362       .  D
C212        C461   1.476       .  S
C217        C218   1.530       .  S
C217        C223   1.540       .  S
C217        C221   1.545       .  S
C217        C441   1.535       .  S
C218        H225   1.087       .  S
C218        C219   1.360       .  D
C219        C220   1.535       .  S
C219        C588   1.473       .  S
C220        C224   1.546       .  S
C220        C222   1.543       .  S
C220        H226   1.109       .  S
C221        H227   1.080       .  S
C221        C222   1.369       .  D
C222        C358   1.492       .  S
C223        H228   1.085       .  S
C223        C224   1.372       .  D
C224        C291   1.496       .  S
C229        C230   1.534       .  S
C229        C235   1.533       .  S
C229        C233   1.540       .  S
C229        C498   1.530       .  S
C230        H237   1.085       .  S
C230        C231   1.367       .  D
C231        C232   1.545       .  S
C231        C328   1.491       .  S
C232        C236   1.541       .  S
C232        C234   1.549       .  S
C232        H238   1.107       .  S
C233        H239   1.079       .  S
C233        C234   1.369       .  D
C234        C351   1.499       .  S
C235        H240   1.087       .  S
C235        C236   1.363       .  D
C236        C538   1.479       .  S
C241        C242   1.543       .  S
C241        C247   1.531       .  S
C241        C245   1.546       .  S
C241        C551   1.543       .  S
C242        H249   1.073       .  S
C242        C243   1.367       .  D
C243        C244   1.543       .  S
C243        C371   1.499       .  S
C244        C248   1.536       .  S
C244        C246   1.545       .  S
C244        H250   1.106       .  S
C245        H251   1.085       .  S
C245        C246   1.376       .  D
C246        C308   1.502       .  S
C247        H252   1.087       .  S
C247        C248   1.362       .  D
C248        C451   1.473       .  S
C253        C254   1.532       .  S
C253        C259   1.527       .  S
C253        C257   1.540       .  S
C253        C491   1.526       .  S
C254        H261   1.086       .  S
C254        C255   1.365       .  D
C255        C256   1.544       .  S
C255        C278   1.485       .  S
C256        C260   1.543       .  S
C256        C258   1.544       .  S
C256        H262   1.110       .  S
C257        H263   1.081       .  S
C257        C258   1.368       .  D
C258        C391   1.484       .  S
C259        H264   1.087       .  S
C259        C260   1.362       .  D
C260        C528   1.478       .  S
C265        C266   1.540       .  S
C265        C271   1.528       .  S
C265        C269   1.541       .  S
C265        C301   1.532       .  S
C266        H273   1.082       .  S
C266        C267   1.362       .  D
C267        C268   1.536       .  S
C267        C481   1.478       .  S
C268        C272   1.540       .  S
C268        C270   1.542       .  S
C268        H274   1.110       .  S
C269        H275   1.085       .  S
C269        C270   1.372       .  D
C270        C521   1.489       .  S
C271        H276   1.087       .  S
C271        C272   1.363       .  D
C272        C381   1.475       .  S
C277        C278   1.405       .  A
C277        C282   1.405       .  A
C277        H284   1.083       .  S
C278        C279   1.408       .  A
C279        C280   1.390       .  A
C279        F286   1.358       .  S
C280        C281   1.404       .  A
C280        H285   1.083       .  S
C281        C282   1.408       .  A
C282        F283   1.357       .  S
C287        C288   1.406       .  A
C287        C292   1.399       .  A
C287        H294   1.083       .  S
C288        C289   1.410       .  A
C289        C290   1.406       .  A
C289        F296   1.357       .  S
C290        C291   1.407       .  A
C290        H295   1.083       .  S
C291        C292   1.409       .  A
C292        F293   1.357       .  S
C297        C298   1.405       .  A
C297        C302   1.401       .  A
C297        H304   1.083       .  S
C298        C299   1.402       .  A
C299        C300   1.394       .  A
C299        F306   1.357       .  S
C300        C301   1.412       .  A
C300        H305   1.078       .  S
C301        C302   1.412       .  A
C302        F303   1.357       .  S
C307        C308   1.405       .  A
C307        C312   1.400       .  A
C307        H314   1.082       .  S
C308        C309   1.414       .  A
C309        C310   1.406       .  A
C309        F316   1.356       .  S
C310        C311   1.404       .  A
C310        H315   1.083       .  S
C311        C312   1.411       .  A
C312        F313   1.357       .  S
C317        C318   1.406       .  A
C317        C322   1.406       .  A
C317        H324   1.083       .  S
C318        C319   1.408       .  A
C319        C320   1.396       .  A
C319        F326   1.358       .  S
C320        C321   1.407       .  A
C320        H325   1.082       .  S
C321        C322   1.411       .  A
C322        F323   1.355       .  S
C327        C328   1.406       .  A
C327        C332   1.400       .  A
C327        H334   1.082       .  S
C328        C329   1.414       .  A
C329        C330   1.398       .  A
C329        F336   1.357       .  S
C330        C331   1.398       .  A
C330        H335   1.084       .  S
C331        C332   1.404       .  A
C332        F333   1.357       .  S
C337        C338   1.407       .  A
C337        C342   1.406       .  A
C337        H344   1.083       .  S
C338        C339   1.407       .  A
C339        C340   1.396       .  A
C339        F346   1.357       .  S
C340        C341   1.405       .  A
C340        H345   1.083       .  S
C341        C342   1.409       .  A
C342        F343   1.357       .  S
C347        C348   1.407       .  A
C347        C352   1.405       .  A
C347        H354   1.083       .  S
C348        C349   1.406       .  A
C349        C350   1.394       .  A
C349        F356   1.358       .  S
C350        C351   1.409       .  A
C350        H355   1.082       .  S
C351        C352   1.410       .  A
C352        F353   1.355       .  S
C357        C358   1.410       .  A
C357        C362   1.399       .  A
C357        H364   1.083       .  S
C358        C359   1.410       .  A
C359        C360   1.400       .  A
C359        F366   1.356       .  S
C360        C361   1.401       .  A
C360        H365   1.083       .  S
C361        C362   1.400       .  A
C362        F363   1.358       .  S
C367        C368   1.402       .  A
C367        C372   1.394       .  A
C367        H374   1.083       .  S
C368        C369   1.407       .  A
C369        C370   1.403       .  A
C369        F376   1.357       .  S
C370        C371   1.409       .  A
C370        H375   1.081       .  S
C371        C372   1.414       .  A
C372        F373   1.356       .  S
C377        C378   1.408       .  A
C377        C382   1.401       .  A
C377        H384   1.083       .  S
C378        C379   1.410       .  A
C379        C380   1.398       .  A
C379        F386   1.357       .  S
C380        C381   1.401       .  A
C380        H385   1.084       .  S
C381        C382   1.402       .  A
C382        F383   1.357       .  S
C387        C388   1.404       .  A
C387        C392   1.395       .  A
C387        H394   1.083       .  S
C388        C389   1.409       .  A
C389        C390   1.403       .  A
C389        F396   1.357       .  S
C390        C391   1.403       .  A
C390        H395   1.083       .  S
C391        C392   1.408       .  A
C392        F393   1.358       .  S
C397        C398   1.404       .  A
C397        C402   1.392       .  A
C397        H404   1.083       .  S
C398        C399   1.405       .  A
C399        C400   1.402       .  A
C399        F406   1.357       .  S
C400        C401   1.408       .  A
C400        H405   1.083       .  S
C401        C402   1.406       .  A
C402        F403   1.357       .  S
C407        C408   1.410       .  A
C407        C412   1.396       .  A
C407        H414   1.083       .  S
C408        C409   1.409       .  A
C409        C410   1.402       .  A
C409        F416   1.356       .  S
C410        C411   1.403       .  A
C410        H415   1.083       .  S
C411        C412   1.399       .  A
C412        F413   1.358       .  S
C417        C418   1.403       .  A
C417        C422   1.396       .  A
C417        H424   1.083       .  S
C418        C419   1.412       .  A
C419        C420   1.402       .  A
C419        F426   1.358       .  S
C420        C421   1.400       .  A
C420        H425   1.083       .  S
C421        C422   1.404       .  A
C422        F423   1.358       .  S
C427        C428   1.415       .  A
C427        C432   1.397       .  A
C427        H434   1.079       .  S
C428        C429   1.409       .  A
C429        C430   1.397       .  A
C429        F436   1.357       .  S
C430        C431   1.406       .  A
C430        H435   1.083       .  S
C431        C432   1.402       .  A
C432        F433   1.358       .  S
C437        C438   1.402       .  A
C437        C442   1.399       .  A
C437        H444   1.083       .  S
C438        C439   1.404       .  A
C439        C440   1.399       .  A
C439        F446   1.357       .  S
C440        C441   1.413       .  A
C440        H445   1.076       .  S
C441        C442   1.413       .  A
C442        F443   1.358       .  S
C447        C448   1.408       .  A
C447        C452   1.399       .  A
C447        H454   1.083       .  S
C448        C449   1.411       .  A
C449        C450   1.400       .  A
C449        F456   1.357       .  S
C450        C451   1.400       .  A
C450        H455   1.084       .  S
C451        C452   1.401       .  A
C452        F453   1.357       .  S
C457        C458   1.404       .  A
C457        C462   1.398       .  A
C457        H464   1.083       .  S
C458        C459   1.410       .  A
C459        C460   1.401       .  A
C459        F466   1.357       .  S
C460        C461   1.400       .  A
C460        H465   1.083       .  S
C461        C462   1.405       .  A
C462        F463   1.358       .  S
C467        C468   1.407       .  A
C467        C472   1.400       .  A
C467        H474   1.083       .  S
C468        C469   1.411       .  A
C469        C470   1.398       .  A
C469        F476   1.357       .  S
C470        C471   1.399       .  A
C470        H475   1.084       .  S
C471        C472   1.402       .  A
C472        F473   1.357       .  S
C477        C478   1.402       .  A
C477        C482   1.393       .  A
C477        H484   1.083       .  S
C478        C479   1.410       .  A
C479        C480   1.401       .  A
C479        F486   1.357       .  S
C480        C481   1.401       .  A
C480        H485   1.083       .  S
C481        C482   1.407       .  A
C482        F483   1.358       .  S
C487        C488   1.398       .  A
C487        C492   1.393       .  A
C487        H494   1.083       .  S
C488        C489   1.404       .  A
C489        C490   1.397       .  A
C489        F496   1.358       .  S
C490        C491   1.411       .  A
C490        H495   1.077       .  S
C491        C492   1.413       .  A
C492        F493   1.358       .  S
C497        C498   1.411       .  A
C497        C502   1.396       .  A
C497        H504   1.075       .  S
C498        C499   1.414       .  A
C499        C500   1.397       .  A
C499        F506   1.358       .  S
C500        C501   1.400       .  A
C500        H505   1.083       .  S
C501        C502   1.405       .  A
C502        F503   1.358       .  S
C507        C508   1.406       .  A
C507        C512   1.407       .  A
C507        H514   1.083       .  S
C508        C509   1.407       .  A
C509        C510   1.397       .  A
C509        F516   1.358       .  S
C510        C511   1.406       .  A
C510        H515   1.083       .  S
C511        C512   1.410       .  A
C512        F513   1.357       .  S
C517        C518   1.404       .  A
C517        C522   1.395       .  A
C517        H524   1.083       .  S
C518        C519   1.410       .  A
C519        C520   1.404       .  A
C519        F526   1.357       .  S
C520        C521   1.405       .  A
C520        H525   1.083       .  S
C521        C522   1.409       .  A
C522        F523   1.357       .  S
C527        C528   1.401       .  A
C527        C532   1.403       .  A
C527        H534   1.083       .  S
C528        C529   1.405       .  A
C529        C530   1.398       .  A
C529        F536   1.358       .  S
C530        C531   1.405       .  A
C530        H535   1.083       .  S
C531        C532   1.411       .  A
C532        F533   1.357       .  S
C537        C538   1.404       .  A
C537        C542   1.402       .  A
C537        H544   1.084       .  S
C538        C539   1.401       .  A
C539        C540   1.399       .  A
C539        F546   1.356       .  S
C540        C541   1.408       .  A
C540        H545   1.083       .  S
C541        C542   1.409       .  A
C542        F543   1.357       .  S
C547        C548   1.406       .  A
C547        C552   1.405       .  A
C547        H554   1.082       .  S
C548        C549   1.402       .  A
C549        C550   1.397       .  A
C549        F556   1.358       .  S
C550        C551   1.415       .  A
C550        H555   1.072       .  S
C551        C552   1.414       .  A
C552        F553   1.357       .  S
C557        C558   1.403       .  A
C557        C562   1.398       .  A
C557        H564   1.083       .  S
C558        C559   1.400       .  A
C559        C560   1.394       .  A
C559        F566   1.358       .  S
C560        C561   1.414       .  A
C560        H565   1.075       .  S
C561        C562   1.413       .  A
C562        F563   1.358       .  S
C567        C568   1.408       .  A
C567        C572   1.401       .  A
C567        H574   1.083       .  S
C568        C569   1.405       .  A
C569        C570   1.387       .  A
C569        F576   1.357       .  S
C570        C571   1.402       .  A
C570        H575   1.084       .  S
C571        C572   1.404       .  A
C572        F573   1.357       .  S
C577        C578   1.406       .  A
C577        C582   1.402       .  A
C577        H584   1.083       .  S
C578        C579   1.403       .  A
C579        C580   1.396       .  A
C579        F586   1.357       .  S
C580        C581   1.413       .  A
C580        H585   1.080       .  S
C581        C582   1.413       .  A
C582        F583   1.357       .  S
C587        C588   1.403       .  A
C587        C592   1.403       .  A
C587        H594   1.083       .  S
C588        C589   1.402       .  A
C589        C590   1.393       .  A
C589        F596   1.358       .  S
C590        C591   1.405       .  A
C590        H595   1.083       .  S
C591        C592   1.407       .  A
C592        F593   1.357       .  S
