geometry optimzed in LAMMPS
_audit_creation_date              2020-11-30 
_audit_creation_method            'lammps2cif' 
_symmetry_space_group_name_H-M    'P1' 
_symmetry_Int_Tables_number       1 
_symmetry_cell_setting            triclinic 
loop_ 
_symmetry_equiv_pos_as_xyz 
  x,y,z 
_cell_length_a                    42.13132085502529 
_cell_length_b                    41.63687496750036 
_cell_length_c                    41.670432117122274 
_cell_angle_alpha                 89.37449810243369 
_cell_angle_beta                  90.06011646802406 
_cell_angle_gamma                 89.53715975473845 
loop_ 
_atom_site_label 
_atom_site_type_symbol 
_atom_site_fract_x 
_atom_site_fract_y 
_atom_site_fract_z 
_atom_site_charge 
C1          C  0.57058509  0.06444053  0.75255717    -0.02830
C2          C  0.56616543  0.91907490  0.75285150    -0.02830
C3          C  0.42733844  0.07482034  0.74519833    -0.02830
C4          C  0.42577286  0.93098627  0.74318141    -0.02830
C5          C  0.75324529  0.57364816  0.93059243    -0.02830
C6          C  0.74799255  0.43043088  0.06928088    -0.02830
C7          C  0.74384864  0.57831931  0.07185320    -0.02830
C8          C  0.74862135  0.42839470  0.92742805    -0.02830
C9          C  0.06902977  0.75311045  0.56932067    -0.02830
C10         C  0.06988086  0.74970705  0.42700872    -0.02830
C11         C  0.92719559  0.75154950  0.56864072    -0.02830
C12         C  0.92664641  0.75061097  0.42282853    -0.02830
In13       In  0.58156293  0.17284370  0.07973639     1.36870
C14         C  0.58810241  0.17028666  0.01585973     0.77240
O15         O  0.53748506  0.14313781  0.07260300    -0.61200
O16         O  0.53380580  0.18804820  0.09620726    -0.52120
C17         C  0.60272403  0.13683191  0.12832823     0.69910
O18         O  0.58887241  0.12513513  0.10439948    -0.46970
C19         C  0.59023769  0.23447759  0.08978405     0.74610
O20         O  0.61003036  0.15957409  0.03403478    -0.58830
O21         O  0.56912871  0.21857306  0.10403022    -0.48920
O22         O  0.56460428  0.18154188  0.03047225    -0.55260
C23         C  0.51972867  0.16408525  0.08508821     0.84790
O24         O  0.61221646  0.16511378  0.12407514    -0.57160
O25         O  0.60922909  0.21820763  0.07276751    -0.60450
In26       In  0.58016274  0.33168353  0.07931313     1.36870
C27         C  0.51665650  0.33871618  0.08688570     0.77240
O28         O  0.58249497  0.36032368  0.03286117    -0.61200
O29         O  0.58805331  0.30954391  0.03190048    -0.52120
C30         C  0.62979845  0.36521480  0.10034250     0.69910
O31         O  0.60536346  0.37896545  0.08919458    -0.46970
C32         C  0.58964707  0.26952333  0.08948862     0.74610
O33         O  0.53475245  0.33560359  0.11104221    -0.58830
O34         O  0.60468960  0.28535736  0.06866884    -0.48920
O35         O  0.53128364  0.34100508  0.06077653    -0.55260
C36         C  0.58654470  0.33546704  0.01624962     0.84790
O37         O  0.62589528  0.33599654  0.10668106    -0.57160
O38         O  0.57127828  0.28591008  0.10704728    -0.60450
In39       In  0.42277892  0.16622080  0.07911472     1.36870
C40         C  0.41512651  0.16262992  0.01542684     0.77240
O41         O  0.39501089  0.21157490  0.06992399    -0.61200
O42         O  0.43222495  0.21212560  0.10458573    -0.52120
C43         C  0.40362061  0.12795480  0.12661048     0.69910
O44         O  0.41804960  0.11744799  0.10243303    -0.46970
C45         C  0.48526129  0.16268692  0.08485863     0.74610
O46         O  0.39205392  0.15644593  0.03395395    -0.58830
O47         O  0.46886513  0.18551693  0.09556219    -0.48920
O48         O  0.44049926  0.16896647  0.02965241    -0.55260
C49         C  0.41219527  0.22796605  0.08841060     0.84790
O50         O  0.39296223  0.15607344  0.12323567    -0.57160
O51         O  0.46965062  0.14025716  0.07241692    -0.60450
In52       In  0.41883604  0.32542360  0.07796706     1.36870
C53         C  0.48143035  0.33703144  0.08664849     0.77240
O54         O  0.42838477  0.27996675  0.10661442    -0.61200
O55         O  0.39831164  0.27826153  0.06551543    -0.52120
C56         C  0.36678129  0.35593455  0.09926889     0.69910
O57         O  0.39288140  0.37017012  0.09539841    -0.46970
C58         C  0.41419589  0.33160189  0.01496633     0.74610
O59         O  0.46354893  0.33110351  0.11040400    -0.58830
O60         O  0.41654014  0.30505144  0.02941365    -0.48920
O61         O  0.46689555  0.33898218  0.06040276    -0.55260
C62         C  0.41212046  0.26300126  0.08772543     0.84790
O63         O  0.36904445  0.32605971  0.09704072    -0.57160
O64         O  0.41373598  0.35593791  0.03277791    -0.60450
In65       In  0.58011107  0.17397359  0.91666070     1.36870
C66         C  0.58767360  0.17057949  0.98046340     0.77240
O67         O  0.61025950  0.21757205  0.92301275    -0.61200
O68         O  0.57096850  0.21988276  0.89061333    -0.52120
C69         C  0.59978262  0.13392112  0.87155836     0.69910
O70         O  0.60657319  0.16326264  0.87061751    -0.46970
C71         C  0.51800907  0.16775538  0.91049900     0.74610
O72         O  0.60959649  0.16099131  0.96200418    -0.58830
O73         O  0.53280345  0.19220275  0.90116541    -0.48920
O74         O  0.56351654  0.18132283  0.96616890    -0.55260
C75         C  0.59231268  0.23473361  0.90532184     0.84790
O76         O  0.58829290  0.12475885  0.89794734    -0.57160
O77         O  0.53505246  0.14547983  0.92207247    -0.60450
In78       In  0.42075541  0.33000845  0.91716569     1.36870
C79         C  0.48374841  0.33655396  0.91097576     0.77240
O80         O  0.41861300  0.35791762  0.96358375    -0.61200
O81         O  0.41135268  0.30743313  0.96437359    -0.52120
C82         C  0.37335129  0.36662327  0.89561882     0.69910
O83         O  0.37851296  0.33890677  0.88498243    -0.46970
C84         C  0.41013523  0.26855697  0.90605036     0.74610
O85         O  0.46561957  0.34331622  0.88755525    -0.58830
O86         O  0.39423536  0.28443565  0.92602997    -0.48920
O87         O  0.46950024  0.32800628  0.93594226    -0.55260
C88         C  0.41400300  0.33281476  0.98012250     0.84790
O89         O  0.39563883  0.37779297  0.91208788    -0.57160
O90         O  0.42911179  0.28490072  0.88903717    -0.60450
In91       In  0.58166379  0.33055820  0.91853184     1.36870
C92         C  0.51871243  0.33656794  0.91127083     0.77240
O93         O  0.57391134  0.28678585  0.88879459    -0.61200
O94         O  0.60742609  0.28449711  0.92726158    -0.52120
C95         C  0.62980438  0.36521453  0.89721952     0.69910
O96         O  0.60579791  0.37801723  0.91000247    -0.46970
C97         C  0.58726516  0.33535014  0.98139716     0.74610
O98         O  0.53704681  0.34413835  0.88835680    -0.58830
O99         O  0.59100651  0.30948633  0.96655782    -0.48920
O100        O  0.53273969  0.32735115  0.93628327    -0.55260
C101        C  0.59235390  0.26968441  0.90601038     0.84790
O102        O  0.62625583  0.33623107  0.89014515    -0.57160
O103        O  0.58213708  0.35981851  0.96396551    -0.60450
In104      In  0.42130863  0.17135872  0.91637954     1.36870
C105        C  0.41470479  0.16421853  0.98006584     0.77240
O106        O  0.46748552  0.14384141  0.92072595    -0.61200
O107        O  0.46767583  0.19126021  0.90122593    -0.52120
C108        C  0.40036510  0.13477465  0.86894928     0.69910
O109        O  0.41624108  0.12336558  0.89202730    -0.46970
C110        C  0.41018940  0.23340570  0.90634785     0.74610
O111        O  0.39156534  0.15836324  0.96162029    -0.58830
O112        O  0.43038380  0.21766715  0.89065963    -0.48920
O113        O  0.43940477  0.17289559  0.96579537    -0.55260
C114        C  0.48355088  0.16708343  0.91013906     0.84790
O115        O  0.39069913  0.16308262  0.87309075    -0.57160
O116        O  0.39323422  0.21683344  0.92525675    -0.60450
In117      In  0.58338654  0.66743521  0.92514770     1.36870
C118        C  0.52071547  0.65963322  0.91485136     0.77240
O119        O  0.58665695  0.63791890  0.97119469    -0.61200
O120        O  0.58846568  0.68882318  0.97344443    -0.52120
C121        C  0.63194127  0.63358988  0.90124578     0.69910
O122        O  0.60899939  0.62046825  0.91544561    -0.46970
C123        C  0.59336723  0.72942723  0.91574530     0.74610
O124        O  0.53972707  0.66210561  0.89150777    -0.58830
O125        O  0.60876756  0.71298881  0.93607895    -0.48920
O126        O  0.53409257  0.65876356  0.94172126    -0.55260
C127        C  0.58813311  0.66253157  0.98854618     0.84790
O128        O  0.62760053  0.66291369  0.89531215    -0.57160
O129        O  0.57431255  0.71374389  0.89856199    -0.60450
In130      In  0.41690079  0.66808319  0.07835362     1.36870
C131        C  0.47914876  0.65873778  0.08857274     0.77240
O132        O  0.41436184  0.64046426  0.03202948    -0.61200
O133        O  0.41347356  0.69155158  0.03086586    -0.52120
C134        C  0.36880067  0.63106838  0.09659264     0.69910
O135        O  0.39457357  0.61974394  0.08636600    -0.46970
C136        C  0.40703674  0.72990906  0.08833319     0.74610
O137        O  0.45999832  0.65884716  0.11199314    -0.58830
O138        O  0.39149893  0.71435820  0.06798596    -0.48920
O139        O  0.46611690  0.66154205  0.06163933    -0.55260
C140        C  0.41358719  0.66589556  0.01534762     0.84790
O141        O  0.37003502  0.66051543  0.10288588    -0.57160
O142        O  0.42508774  0.71313703  0.10630414    -0.60450
In143      In  0.57739902  0.66442446  0.08637201     1.36870
C144        C  0.51408718  0.65799883  0.09025341     0.77240
O145        O  0.56879698  0.70966534  0.11419528    -0.61200
O146        O  0.60534128  0.70920902  0.07887842    -0.52120
C147        C  0.62334664  0.62848261  0.11201785     0.69910
O148        O  0.60190927  0.61649149  0.09494948    -0.46970
C149        C  0.58697850  0.66185107  0.02352828     0.74610
O150        O  0.53103299  0.65576657  0.11526722    -0.58830
O151        O  0.58674999  0.68755628  0.03910224    -0.48920
O152        O  0.52961215  0.66156796  0.06490181    -0.55260
C153        C  0.58939504  0.72534752  0.09862523     0.84790
O154        O  0.61770733  0.65677882  0.12059226    -0.57160
O155        O  0.58382846  0.63659933  0.04025526    -0.60450
In156      In  0.42299151  0.67221718  0.91834144     1.36870
C157        C  0.48566601  0.66065413  0.91325209     0.77240
O158        O  0.43401976  0.71734060  0.89004162    -0.61200
O159        O  0.40219356  0.71986289  0.92971061    -0.52120
C160        C  0.37247640  0.64122776  0.89617870     0.69910
O161        O  0.39787002  0.62661957  0.90334945    -0.46970
C162        C  0.41507308  0.66681506  0.98070761     0.74610
O163        O  0.46881576  0.66487251  0.88831573    -0.58830
O164        O  0.41745070  0.69325324  0.96616318    -0.48920
O165        O  0.47011554  0.65997763  0.93886906    -0.55260
C166        C  0.41736136  0.73477238  0.90835687     0.84790
O167        O  0.37522577  0.67118850  0.89492189    -0.57160
O168        O  0.41601735  0.64224499  0.96326743    -0.60450
In169      In  0.41951784  0.82662290  0.07751331     1.36870
C170        C  0.41397601  0.83796331  0.01394211     0.77240
O171        O  0.46578188  0.85279781  0.08351039    -0.61200
O172        O  0.46610839  0.80186445  0.07987325    -0.52120
C173        C  0.39869683  0.86115177  0.12738286     0.69910
O174        O  0.40661790  0.87410652  0.10116092    -0.46970
C175        C  0.40787188  0.76499109  0.08746068     0.74610
O176        O  0.38954035  0.83251832  0.03082782    -0.58830
O177        O  0.42892413  0.77999818  0.10244048    -0.48920
O178        O  0.43907330  0.83992719  0.02988670    -0.55260
C179        C  0.48187058  0.82714486  0.08259305     0.84790
O180        O  0.39653765  0.83119750  0.12587978    -0.57160
O181        O  0.39075482  0.78206344  0.06878247    -0.60450
In182      In  0.58565640  0.82663101  0.92283648     1.36870
C183        C  0.58873809  0.83112441  0.98658429     0.77240
O184        O  0.54065598  0.85689101  0.92424543    -0.61200
O185        O  0.53912591  0.81039162  0.90394603    -0.52120
C186        C  0.60975486  0.86238757  0.87637665     0.69910
O187        O  0.59704481  0.87445258  0.90081775    -0.46970
C188        C  0.59443443  0.76444303  0.91515005     0.74610
O189        O  0.61287630  0.83759178  0.96966106    -0.58830
O190        O  0.57504175  0.78068784  0.89857700    -0.48920
O191        O  0.56459631  0.82363024  0.97082997    -0.55260
C192        C  0.52396911  0.83505531  0.91220630     0.84790
O193        O  0.61743765  0.83330567  0.87961721    -0.57160
O194        O  0.61198475  0.78050857  0.93361227    -0.60450
In195      In  0.57811245  0.82125605  0.08494906     1.36870
C196        C  0.58701678  0.83000814  0.02178954     0.77240
O197        O  0.60737401  0.77614341  0.07932700    -0.61200
O198        O  0.57190432  0.77686448  0.11523030    -0.52120
C199        C  0.59244467  0.86235046  0.13129086     0.69910
O200        O  0.61404659  0.85134968  0.11332748    -0.46970
C201        C  0.51617208  0.82594661  0.08359566     0.74610
O202        O  0.60819703  0.83842506  0.04146191    -0.58830
O203        O  0.53068691  0.79956038  0.08755943    -0.48920
O204        O  0.56255614  0.81894212  0.03462219    -0.55260
C205        C  0.59091787  0.76034854  0.09904705     0.84790
O206        O  0.56528723  0.85243864  0.12500734    -0.57160
O207        O  0.53345209  0.85041804  0.07964922    -0.60450
In208      In  0.42667353  0.83223665  0.91510123     1.36870
C209        C  0.41583779  0.83901540  0.97848199     0.77240
O210        O  0.40084080  0.78658283  0.92617664    -0.61200
O211        O  0.43806938  0.78530980  0.89166761    -0.52120
C212        C  0.40391223  0.86806444  0.86626884     0.69910
O213        O  0.41794803  0.87996760  0.88993980    -0.46970
C214        C  0.48939407  0.83608733  0.91063974     0.74610
O215        O  0.39293660  0.83681300  0.95897876    -0.58830
O216        O  0.47393273  0.81187723  0.90224999    -0.48920
O217        O  0.44255429  0.83989211  0.96524140    -0.55260
C218        C  0.41802749  0.76981810  0.90786240     0.84790
O219        O  0.39720341  0.83899309  0.87020022    -0.57160
O220        O  0.47273705  0.85953223  0.91988672    -0.60450
C221        C  0.57194590  0.07668967  0.25305476    -0.02830
C222        C  0.42834582  0.92612315  0.24738017    -0.02830
C223        C  0.57173850  0.93331734  0.25002074    -0.02830
C224        C  0.43046913  0.07016605  0.25454327    -0.02830
In225      In  0.91854391  0.57920775  0.67315005     1.36870
C226        C  0.90941417  0.51584229  0.67341288     0.77240
O227        O  0.96421568  0.56698510  0.64835636    -0.61200
O228        O  0.96519472  0.59649298  0.68977772    -0.52120
C229        C  0.90325618  0.62568713  0.63259906     0.69910
O230        O  0.88879885  0.62221137  0.65884414    -0.46970
C231        C  0.90658414  0.59408159  0.73277337     0.74610
O232        O  0.89104120  0.53415856  0.65730185    -0.58830
O233        O  0.92854936  0.60700149  0.71695891    -0.48920
O234        O  0.93039076  0.53017598  0.68898077    -0.55260
C235        C  0.98057223  0.58241515  0.66820053     0.84790
O236        O  0.91946382  0.60158100  0.62456336    -0.57160
O237        O  0.88771635  0.57687303  0.71682699    -0.60450
In238      In  0.91822289  0.41688811  0.67661358     1.36870
C239        C  0.90924836  0.48049195  0.67433471     0.77240
O240        O  0.88780432  0.42060206  0.72044372    -0.61200
O241        O  0.92719422  0.38794991  0.72092141    -0.52120
C242        C  0.90091554  0.37232920  0.63526405     0.69910
O243        O  0.88780447  0.37455587  0.66231542    -0.46970
C244        C  0.98068316  0.41341730  0.67212767     0.74610
O245        O  0.89067892  0.46221054  0.65924224    -0.58830
O246        O  0.96536640  0.40054004  0.69462442    -0.48920
O247        O  0.93011045  0.46604668  0.69055919    -0.55260
C248        C  0.90602775  0.40230511  0.73668383     0.84790
O249        O  0.91793498  0.39597810  0.62801265    -0.57160
O250        O  0.96406054  0.42723746  0.65088321    -0.60450
In251      In  0.07751145  0.41791597  0.67669037     1.36870
C252        C  0.08563733  0.48133776  0.67284914     0.77240
O253        O  0.03148197  0.42603287  0.65009526    -0.61200
O254        O  0.03069169  0.40270690  0.69566842    -0.52120
C255        C  0.09513229  0.37150305  0.63731447     0.69910
O256        O  0.08258865  0.39734391  0.62766218    -0.46970
C257        C  0.09250584  0.40576710  0.73675825     0.74610
O258        O  0.10562177  0.46256658  0.65997016    -0.58830
O259        O  0.07024585  0.39169935  0.72264903    -0.48920
O260        O  0.06348436  0.46746243  0.68741970    -0.55260
C261        C  0.01513263  0.41366582  0.67221679     0.84790
O262        O  0.10391911  0.37204991  0.66616542    -0.57160
O263        O  0.10977914  0.42336216  0.71909573    -0.60450
In264      In  0.07694321  0.58022993  0.67134621     1.36870
C265        C  0.08564189  0.51666873  0.67164201     0.77240
O266        O  0.10935471  0.57678798  0.71409530    -0.61200
O267        O  0.06844484  0.60719900  0.71647917    -0.52120
C268        C  0.09167107  0.62579837  0.62880057     0.69910
O269        O  0.10619538  0.62258169  0.65514870    -0.46970
C270        C  0.01487779  0.58293620  0.66768284     0.74610
O271        O  0.10467512  0.53456829  0.65623475    -0.58830
O272        O  0.03037342  0.59784122  0.68854979    -0.48920
O273        O  0.06422355  0.53146633  0.68637427    -0.55260
C274        C  0.09119754  0.59388161  0.73120215     0.84790
O275        O  0.07434012  0.60239403  0.62209287    -0.57160
O276        O  0.03116857  0.56751200  0.64762428    -0.60450
In277      In  0.08380864  0.41966891  0.83226412     1.36870
C278        C  0.02057727  0.41195268  0.83596175     0.77240
O279        O  0.07877291  0.46642524  0.85865607    -0.61200
O280        O  0.09819786  0.46663789  0.81156937    -0.52120
C281        C  0.13090382  0.40048904  0.87081008     0.69910
O282        O  0.10644337  0.41468207  0.88096003    -0.46970
C283        C  0.09406727  0.40616684  0.77166453     0.74610
O284        O  0.03917567  0.39004371  0.84622345    -0.58830
O285        O  0.10901917  0.42774112  0.78604854    -0.48920
O286        O  0.03446112  0.43629781  0.82510727    -0.55260
C287        C  0.08942004  0.48267189  0.83538341     0.84790
O288        O  0.12844340  0.39104344  0.84235139    -0.57160
O289        O  0.07664869  0.38866824  0.78922748    -0.60450
In290      In  0.92244099  0.57882286  0.82702130     1.36870
C291        C  0.98518100  0.58669103  0.83084364     0.77240
O292        O  0.92332682  0.53282703  0.85557103    -0.61200
O293        O  0.91447867  0.53126468  0.80530279    -0.52120
C294        C  0.87607727  0.59436894  0.86628341     0.69910
O295        O  0.90191698  0.58261574  0.87622185    -0.46970
C296        C  0.90748017  0.59363767  0.76763377     0.74610
O297        O  0.96659791  0.60873289  0.84032966    -0.58830
O298        O  0.89340881  0.57202696  0.78328881    -0.48920
O299        O  0.97148684  0.56243855  0.82010351    -0.55260
C300        C  0.91801735  0.51598268  0.83125087     0.84790
O301        O  0.87702548  0.60461011  0.83777003    -0.57160
O302        O  0.92659387  0.61059577  0.78356206    -0.60450
In303      In  0.08313173  0.58035939  0.82751484     1.36870
C304        C  0.02011387  0.58695384  0.83111180     0.77240
O305        O  0.07471235  0.61086074  0.78340129    -0.61200
O306        O  0.10811112  0.57216348  0.78121117    -0.52120
C307        C  0.12978884  0.60045610  0.86498898     0.69910
O308        O  0.10532003  0.58739570  0.87623611    -0.46970
C309        C  0.08944448  0.51754652  0.83436360     0.74610
O310        O  0.03788767  0.60941938  0.84054976    -0.58830
O311        O  0.09817812  0.53260988  0.80963498    -0.48920
O312        O  0.03469778  0.56279772  0.82083448    -0.55260
C313        C  0.09258209  0.59351761  0.76623308     0.84790
O314        O  0.12735815  0.60855838  0.83590858    -0.57160
O315        O  0.07880048  0.53473604  0.85668020    -0.60450
In316      In  0.92210549  0.41831410  0.83082128     1.36870
C317        C  0.98548054  0.41136404  0.83526601     0.77240
O318        O  0.92635451  0.38597409  0.78812126    -0.61200
O319        O  0.89321185  0.42504888  0.78668509    -0.52120
C320        C  0.87485346  0.40342865  0.87028653     0.69910
O321        O  0.89961409  0.41718634  0.87969631    -0.46970
C322        C  0.91770482  0.48126597  0.83213722     0.74610
O323        O  0.96743394  0.38953785  0.84612898    -0.58830
O324        O  0.91357808  0.46538504  0.80701990    -0.48920
O325        O  0.97100532  0.43472274  0.82274019    -0.55260
C326        C  0.90720722  0.40306244  0.77163451     0.84790
O327        O  0.87741161  0.39145605  0.84277095    -0.57160
O328        O  0.92310492  0.46495130  0.85722796    -0.60450
C329        C  0.24587033  0.57027507  0.07265609    -0.02830
C330        C  0.25357425  0.43036046  0.92815218    -0.02830
C331        C  0.25335030  0.57536903  0.92522743    -0.02830
C332        C  0.24871981  0.42788504  0.07262782    -0.02830
In333      In  0.07564764  0.58056328  0.32521506     1.36870
C334        C  0.08325057  0.51697672  0.33151893     0.77240
O335        O  0.03105495  0.57792596  0.35485360    -0.61200
O336        O  0.02828573  0.59380423  0.30620400    -0.52120
C337        C  0.09479685  0.62661168  0.36435326     0.69910
O338        O  0.08140217  0.60152906  0.37419706    -0.46970
C339        C  0.08590316  0.59147122  0.26323244     0.74610
O340        O  0.10650676  0.53552256  0.33601348    -0.58830
O341        O  0.06559445  0.60685902  0.27917486    -0.48920
O342        O  0.05775206  0.53107900  0.32443459    -0.55260
C343        C  0.01380141  0.58696866  0.33171563     0.84790
O344        O  0.10368135  0.62519298  0.33558379    -0.57160
O345        O  0.10352724  0.57275614  0.27964767    -0.60450
In346      In  0.07425287  0.58212612  0.16607689     1.36870
C347        C  0.01187270  0.59210285  0.15489100     0.77240
O348        O  0.08707661  0.53519584  0.14252666    -0.61200
O349        O  0.06870810  0.53456261  0.18998473    -0.52120
C350        C  0.12242510  0.60253386  0.12941755     0.69910
O351        O  0.09738470  0.59152907  0.11743688    -0.46970
C352        C  0.08547422  0.59183332  0.22802320     0.74610
O353        O  0.02944168  0.61467890  0.16412981    -0.58830
O354        O  0.10026523  0.57106608  0.21200173    -0.48920
O355        O  0.02680091  0.56686938  0.14814381    -0.55260
C356        C  0.07903012  0.51872127  0.16665697     0.84790
O357        O  0.11996135  0.60863538  0.15882611    -0.57160
O358        O  0.06712206  0.60990706  0.21173924    -0.60450
In359      In  0.08007626  0.42061710  0.17188930     1.36870
C360        C  0.01871409  0.41018043  0.15769995     0.77240
O361        O  0.07300256  0.39136743  0.21681590    -0.61200
O362        O  0.10189917  0.43323380  0.21842740    -0.52120
C363        C  0.13165113  0.39904288  0.14160900     0.69910
O364        O  0.10520260  0.40205143  0.12753473    -0.46970
C365        C  0.08058323  0.48389656  0.16797664     0.74610
O366        O  0.03598236  0.38793034  0.16937943    -0.58830
O367        O  0.07138739  0.46870097  0.19245557    -0.48920
O368        O  0.03360474  0.43521761  0.15053189    -0.55260
C369        C  0.08928821  0.41038768  0.23357086     0.84790
O370        O  0.13011250  0.40273892  0.17131542    -0.57160
O371        O  0.09018165  0.46676144  0.14509117    -0.60450
In372      In  0.07864209  0.41781964  0.32947499     1.36870
C373        C  0.08378267  0.48165134  0.33305294     0.77240
O374        O  0.10625585  0.42839301  0.28488359    -0.61200
O375        O  0.07122613  0.39161357  0.28400555    -0.52120
C376        C  0.10199439  0.37307667  0.36892427     0.69910
O377        O  0.10535129  0.37149252  0.33904355    -0.46970
C378        C  0.01645485  0.40972668  0.33347198     0.74610
O379        O  0.10809695  0.46381779  0.33634018    -0.58830
O380        O  0.03236719  0.40426111  0.30866937    -0.48920
O381        O  0.05827012  0.46673390  0.32956472    -0.55260
C382        C  0.09005476  0.40910376  0.26841439     0.84790
O383        O  0.09193876  0.39988375  0.37849843    -0.57160
O384        O  0.03247754  0.41782938  0.35762525    -0.60450
In385      In  0.91550942  0.58045638  0.16983556     1.36870
C386        C  0.97672233  0.59200659  0.15569278     0.77240
O387        O  0.92355376  0.60794646  0.21512820    -0.61200
O388        O  0.89590325  0.56516485  0.21682700    -0.52120
C389        C  0.86149503  0.60045049  0.14260719     0.69910
O390        O  0.88702582  0.59916383  0.12676569    -0.46970
C391        C  0.91542792  0.51762732  0.16520259     0.74610
O392        O  0.95918021  0.61375535  0.16741581    -0.58830
O393        O  0.92297337  0.53208839  0.19035392    -0.48920
O394        O  0.96204982  0.56712625  0.14803501    -0.55260
C395        C  0.90835700  0.58776121  0.23200748     0.84790
O396        O  0.86519728  0.59669701  0.17216733    -0.57160
O397        O  0.90760218  0.53531045  0.14166046    -0.60450
In398      In  0.91993277  0.41648748  0.32483138     1.36870
C399        C  0.91205050  0.48013801  0.33383612     0.77240
O400        O  0.96420399  0.41568435  0.35581601    -0.61200
O401        O  0.96783545  0.40565916  0.30602005    -0.52120
C402        C  0.89761760  0.36562949  0.35669230     0.69910
O403        O  0.90959658  0.38909652  0.37102551    -0.46970
C404        C  0.91092340  0.40921274  0.26227839     0.74610
O405        O  0.88851172  0.46142676  0.33559407    -0.58830
O406        O  0.93160118  0.39371712  0.27797112    -0.48920
O407        O  0.93795530  0.46607210  0.32878249    -0.55260
C408        C  0.98195932  0.40957064  0.33225389     0.84790
O409        O  0.89180076  0.37100974  0.32758988    -0.57160
O410        O  0.89317896  0.42722300  0.27890070    -0.60450
In411      In  0.91756354  0.57976704  0.32880986     1.36870
C412        C  0.91151697  0.51566272  0.33535562     0.77240
O413        O  0.89104148  0.56923755  0.28352049    -0.61200
O414        O  0.92779900  0.60421647  0.28235574    -0.52120
C415        C  0.89527530  0.62935180  0.36202458     0.69910
O416        O  0.90696209  0.60485639  0.37574714    -0.46970
C417        C  0.97946375  0.58688044  0.33261981     0.74610
O418        O  0.88723234  0.53381675  0.33646710    -0.58830
O419        O  0.96379281  0.59212658  0.30746585    -0.48920
O420        O  0.93723877  0.53048982  0.33336112    -0.55260
C421        C  0.90814324  0.58791423  0.26686905     0.84790
O422        O  0.88959948  0.62560349  0.33274170    -0.57160
O423        O  0.96335757  0.57931421  0.35705932    -0.60450
In424      In  0.92104268  0.41982831  0.16525806     1.36870
C425        C  0.98362525  0.41028800  0.15617246     0.77240
O426        O  0.91172587  0.46685485  0.13937337    -0.61200
O427        O  0.92368423  0.46689101  0.18895441    -0.52120
C428        C  0.87304586  0.40172286  0.12754804     0.69910
O429        O  0.89948747  0.41021252  0.11644812    -0.46970
C430        C  0.91066536  0.40927426  0.22714155     0.74610
O431        O  0.96571828  0.38713113  0.16364140    -0.58830
O432        O  0.89583759  0.43048309  0.21124593    -0.48920
O433        O  0.96904191  0.43606190  0.15022172    -0.55260
C434        C  0.91667568  0.48296428  0.16424970     0.84790
O435        O  0.87357590  0.39650384  0.15734700    -0.57160
O436        O  0.92826834  0.39094433  0.21071075    -0.60450
In437      In  0.32721587  0.08194539  0.57509750     1.36870
C438        C  0.33468839  0.09180394  0.51189721     0.77240
O439        O  0.35415058  0.03521067  0.58260575    -0.61200
O440        O  0.30451929  0.03436421  0.57355818    -0.52120
C441        C  0.36388152  0.10251235  0.62253352     0.69910
O442        O  0.37471816  0.09634117  0.59511108    -0.46970
C443        C  0.26649616  0.09174999  0.58557431     0.74610
O444        O  0.32673046  0.11464657  0.53005426    -0.58830
O445        O  0.28233848  0.07105104  0.60113177    -0.48920
O446        O  0.34187904  0.06624574  0.52650493    -0.55260
C447        C  0.32958261  0.01863662  0.57864507     0.84790
O448        O  0.33412063  0.10382504  0.62361118    -0.57160
O449        O  0.28243140  0.11004600  0.56736301    -0.60450
In450      In  0.17133038  0.08141771  0.57344852     1.36870
C451        C  0.16292712  0.01819297  0.58203664     0.77240
O452        O  0.14106398  0.08389676  0.52882504    -0.61200
O453        O  0.19140613  0.08590965  0.52474006    -0.52120
C454        C  0.13854828  0.13216078  0.59324494     0.69910
O455        O  0.12512120  0.10588049  0.58738947    -0.46970
C456        C  0.23198821  0.09093883  0.58465447     0.74610
O457        O  0.16261517  0.03669566  0.60601729    -0.58830
O458        O  0.21694131  0.10511369  0.56253529    -0.48920
O459        O  0.16619016  0.03229975  0.55556917    -0.55260
C460        C  0.16500648  0.08533444  0.51070732     0.84790
O461        O  0.16821724  0.13038657  0.59395663    -0.57160
O462        O  0.21550983  0.07315632  0.60291479    -0.60450
In463      In  0.16348833  0.08035305  0.41271301     1.36870
C464        C  0.15619446  0.01702514  0.40525571     0.77240
O465        O  0.20839622  0.07193408  0.38477840    -0.61200
O466        O  0.20780669  0.10752107  0.42127763    -0.52120
C467        C  0.12477858  0.12828977  0.39599325     0.69910
O468        O  0.11484055  0.10188184  0.40664315    -0.46970
C469        C  0.16334322  0.08456723  0.47602701     0.74610
O470        O  0.15779617  0.03538476  0.38083973    -0.58830
O471        O  0.18780107  0.08815516  0.45927179    -0.48920
O472        O  0.15673126  0.03134056  0.43152023    -0.55260
C473        C  0.22394817  0.09154366  0.40159505     0.84790
O474        O  0.15314419  0.12758129  0.38681864    -0.57160
O475        O  0.13833892  0.07897840  0.46053564    -0.60450
In476      In  0.31940394  0.08291841  0.41424128     1.36870
C477        C  0.33253768  0.09201147  0.47654589     0.77240
O478        O  0.27390149  0.11039842  0.42081113    -0.61200
O479        O  0.27484215  0.07124891  0.38821404    -0.52120
C480        C  0.35516509  0.10526638  0.36666218     0.69910
O481        O  0.36599681  0.09910841  0.39427854    -0.46970
C482        C  0.32241837  0.01969536  0.41117500     0.74610
O483        O  0.32165004  0.11473574  0.45924761    -0.58830
O484        O  0.29912144  0.03468587  0.42269105    -0.48920
O485        O  0.33875600  0.06684969  0.46142484    -0.55260
C486        C  0.25852208  0.09209474  0.40245842     0.84790
O487        O  0.32543128  0.10542728  0.36528482    -0.57160
O488        O  0.34467408  0.03699556  0.40083668    -0.60450
In489      In  0.16927687  0.91935791  0.57531544     1.36870
C490        C  0.16186253  0.98282739  0.58241164     0.77240
O491        O  0.21421232  0.92923441  0.60219506    -0.61200
O492        O  0.21511416  0.89520016  0.56424572    -0.52120
C493        C  0.13706292  0.86993077  0.59845546     0.69910
O494        O  0.12323395  0.89512750  0.58859453    -0.46970
C495        C  0.16335405  0.91282872  0.51261964     0.74610
O496        O  0.16221579  0.96447228  0.60685059    -0.58830
O497        O  0.18948025  0.91202998  0.52714655    -0.48920
O498        O  0.16284922  0.96842198  0.55617606    -0.55260
C499        C  0.23057049  0.91103427  0.58441545     0.84790
O500        O  0.16645772  0.87276740  0.60206750    -0.57160
O501        O  0.13921240  0.91588628  0.53028037    -0.60450
In502      In  0.32280647  0.92151971  0.41403191     1.36870
C503        C  0.33626806  0.91139010  0.47629675     0.77240
O504        O  0.34639209  0.96844368  0.40122320    -0.61200
O505        O  0.30015454  0.96897575  0.42166705    -0.52120
C506        C  0.35572773  0.90035178  0.36379805     0.69910
O507        O  0.36914616  0.90828169  0.38955015    -0.46970
C508        C  0.26170788  0.91150848  0.40487402     0.74610
O509        O  0.32655186  0.88871691  0.45897299    -0.58830
O510        O  0.27675194  0.93296012  0.38994122    -0.48920
O511        O  0.34228614  0.93673410  0.46102181    -0.55260
C512        C  0.32313664  0.98487700  0.41099163     0.84790
O513        O  0.32615686  0.89808034  0.36606298    -0.57160
O514        O  0.27840988  0.89328418  0.42275658    -0.60450
In515      In  0.32604587  0.92087667  0.57443174     1.36870
C516        C  0.33671491  0.91149301  0.51171656     0.77240
O517        O  0.28146468  0.89308002  0.56628053    -0.61200
O518        O  0.28033319  0.93285169  0.59820369    -0.52120
C519        C  0.35842036  0.89959769  0.62507625     0.69910
O520        O  0.37195365  0.90641724  0.59892446    -0.46970
C521        C  0.32931132  0.98386789  0.57836369     0.74610
O522        O  0.32917583  0.88830915  0.52997700    -0.58830
O523        O  0.30410927  0.96913575  0.57239210    -0.48920
O524        O  0.34158128  0.93729672  0.52609659    -0.55260
C525        C  0.26507976  0.91143865  0.58389226     0.84790
O526        O  0.32881987  0.89789589  0.62297696    -0.57160
O527        O  0.35354674  0.96639498  0.58276815    -0.60450
In528      In  0.16561634  0.91847601  0.41455779     1.36870
C529        C  0.15617888  0.98163982  0.40566008     0.77240
O530        O  0.13768089  0.91483170  0.46105456    -0.61200
O531        O  0.18805502  0.91236972  0.46217256    -0.52120
C532        C  0.13248085  0.86907332  0.39307396     0.69910
O533        O  0.11905979  0.89418643  0.40297894    -0.46970
C534        C  0.22709693  0.91087142  0.40472409     0.74610
O535        O  0.15926579  0.96339028  0.38174319    -0.58830
O536        O  0.21195710  0.89437228  0.42495174    -0.48920
O537        O  0.15548908  0.96719203  0.43219652    -0.55260
C538        C  0.16259909  0.91265891  0.47778305     0.84790
O539        O  0.16182479  0.87182770  0.38887645    -0.57160
O540        O  0.21032865  0.92945687  0.38728786    -0.60450
In541      In  0.66724165  0.92037869  0.58177271     1.36870
C542        C  0.65864258  0.91331743  0.51811595     0.77240
O543        O  0.63954188  0.96706233  0.58037857    -0.61200
O544        O  0.68821465  0.96746293  0.59377384    -0.52120
C545        C  0.63181876  0.89759312  0.63040119     0.69910
O546        O  0.62023782  0.91134821  0.60598096    -0.46970
C547        C  0.72901151  0.91064814  0.58871684     0.74610
O548        O  0.66014574  0.88892849  0.53653844    -0.58830
O549        O  0.71347304  0.92975363  0.60598334    -0.48920
O550        O  0.65970244  0.93957737  0.53251928    -0.55260
C551        C  0.66338115  0.98340391  0.58806997     0.84790
O552        O  0.66077724  0.89092649  0.62746588    -0.57160
O553        O  0.71254718  0.89415579  0.56964860    -0.60450
In554      In  0.66996492  0.08273166  0.42066335     1.36870
C555        C  0.66172506  0.08964163  0.48401236     0.77240
O556        O  0.64050789  0.03748389  0.41551911    -0.61200
O557        O  0.69079258  0.03433154  0.41429992    -0.52120
C558        C  0.63365983  0.10698499  0.37400626     0.69910
O559        O  0.62265753  0.09653598  0.40015855    -0.46970
C560        C  0.73109049  0.09122879  0.41064758     0.74610
O561        O  0.66303978  0.11411502  0.46576776    -0.58830
O562        O  0.71448339  0.07293353  0.39377736    -0.48920
O563        O  0.66312311  0.06338086  0.46960630    -0.55260
C564        C  0.66484437  0.01977849  0.41360257     0.84790
O565        O  0.66324391  0.11032541  0.37415184    -0.57160
O566        O  0.71584914  0.10800226  0.43068733    -0.60450
In567      In  0.66856205  0.08131174  0.58283583     1.36870
C568        C  0.66115958  0.08935997  0.51938259     0.77240
O569        O  0.71342155  0.10740383  0.57071031    -0.61200
O570        O  0.71505646  0.06987937  0.60596277    -0.52120
C571        C  0.63494364  0.10135204  0.63303412     0.69910
O572        O  0.62214290  0.08917886  0.60878716    -0.46970
C573        C  0.66369230  0.01825011  0.58817330     0.74610
O574        O  0.66041462  0.11349983  0.53768529    -0.58830
O575        O  0.68852252  0.03323508  0.59509205    -0.48920
O576        O  0.66345426  0.06290344  0.53381752    -0.55260
C577        C  0.73020477  0.08956155  0.58884590     0.84790
O578        O  0.66317822  0.10977624  0.62864609    -0.57160
O579        O  0.64037168  0.03558389  0.57973678    -0.60450
In580      In  0.66813516  0.92165750  0.41914020     1.36870
C581        C  0.65840230  0.91349108  0.48259292     0.77240
O582        O  0.71328998  0.89457045  0.43054174    -0.61200
O583        O  0.71413887  0.93225764  0.39545693    -0.52120
C584        C  0.63759750  0.89978412  0.36794309     0.69910
O585        O  0.62287414  0.91078250  0.39179496    -0.46970
C586        C  0.66443151  0.98488674  0.41311010     0.74610
O587        O  0.66090911  0.88937842  0.46445267    -0.58830
O588        O  0.69007395  0.96931655  0.41352147    -0.48920
O589        O  0.65822619  0.93989787  0.46788421    -0.55260
C590        C  0.72962831  0.91187611  0.41173687     0.84790
O591        O  0.66648328  0.89439820  0.37305080    -0.57160
O592        O  0.63964763  0.96807329  0.41444946    -0.60450
In593      In  0.82706219  0.07770350  0.41604456     1.36870
C594        C  0.84054780  0.01605816  0.40392142     0.77240
O595        O  0.85061848  0.09176753  0.46250180    -0.61200
O596        O  0.80754320  0.06554582  0.46404134    -0.52120
C597        C  0.85774895  0.12787090  0.39176613     0.69910
O598        O  0.87238033  0.10310670  0.40148246    -0.46970
C599        C  0.76566558  0.08944749  0.40986163     0.74610
O600        O  0.82543683  0.03336410  0.38396720    -0.58830
O601        O  0.78245889  0.10296628  0.43068315    -0.48920
O602        O  0.85208643  0.03127702  0.42695423    -0.55260
C603        C  0.82934255  0.07890621  0.47944721     0.84790
O604        O  0.82834187  0.12434935  0.38922664    -0.57160
O605        O  0.78062494  0.07142540  0.39071091    -0.60450
In606      In  0.82521781  0.91989284  0.57961418     1.36870
C607        C  0.83904336  0.98175022  0.59108852     0.77240
O608        O  0.84941680  0.90627359  0.53338540    -0.61200
O609        O  0.80559917  0.93193696  0.53155365    -0.52120
C610        C  0.85692817  0.86810879  0.60120732     0.69910
O611        O  0.87050557  0.89462817  0.59641078    -0.46970
C612        C  0.76367764  0.91094275  0.58808526     0.74610
O613        O  0.82508561  0.96455066  0.61181969    -0.58830
O614        O  0.77901684  0.89819670  0.56560128    -0.48920
O615        O  0.84915541  0.96633361  0.56740021    -0.55260
C616        C  0.82789349  0.91890605  0.51631415     0.84790
O617        O  0.82721331  0.86993049  0.60011072    -0.57160
O618        O  0.78017409  0.92669952  0.60777379    -0.60450
In619      In  0.82598848  0.07938182  0.57762148     1.36870
C620        C  0.83938637  0.01733471  0.59074875     0.77240
O621        O  0.78183623  0.07317065  0.60717196    -0.61200
O622        O  0.77928513  0.10048593  0.56359826    -0.52120
C623        C  0.85570305  0.13221583  0.59726908     0.69910
O624        O  0.86993531  0.10545690  0.59575320    -0.46970
C625        C  0.82904617  0.07933017  0.51429682     0.74610
O626        O  0.82547457  0.03492687  0.61098708    -0.58830
O627        O  0.80613012  0.06790344  0.52986048    -0.48920
O628        O  0.85001813  0.03247164  0.56687079    -0.55260
C629        C  0.76473601  0.08859304  0.58719835     0.84790
O630        O  0.82626298  0.13031100  0.59366731    -0.57160
O631        O  0.85102579  0.09085618  0.53106834    -0.60450
In632      In  0.82583056  0.91956970  0.41810618     1.36870
C633        C  0.84034692  0.98065101  0.40443307     0.77240
O634        O  0.78014059  0.92856609  0.39201323    -0.61200
O635        O  0.78014439  0.89675325  0.43254629    -0.52120
C636        C  0.85608710  0.86804653  0.39584028     0.69910
O637        O  0.87074275  0.89306502  0.40359731    -0.46970
C638        C  0.82804248  0.91881592  0.48149360     0.74610
O639        O  0.82548381  0.96360779  0.38463540    -0.58830
O640        O  0.80627319  0.93243159  0.46569421    -0.48920
O641        O  0.85125214  0.96530373  0.42816129    -0.55260
C642        C  0.76421018  0.91148776  0.41136314     0.84790
O643        O  0.82656161  0.87169964  0.39421595    -0.57160
O644        O  0.84925902  0.90537638  0.46496252    -0.60450
C645        C  0.92420465  0.25005282  0.56756340    -0.02830
C646        C  0.06430735  0.25052412  0.57424133    -0.02830
C647        C  0.06577937  0.25265163  0.42906441    -0.02830
C648        C  0.92454952  0.24425801  0.42228834    -0.02830
C649        C  0.01410360  0.22206977  0.43333213    -0.26660
C650        C  0.03023310  0.24785256  0.41849012    -0.14730
C651        C  0.01146011  0.26844398  0.39839227     0.35900
C652        C  0.97823069  0.26757862  0.40069208    -0.26110
C653        C  0.96173455  0.24352286  0.41818790    -0.15350
C654        C  0.98094776  0.21989124  0.43415210     0.36980
N655        N  0.96710103  0.19442506  0.45290930    -0.89600
H656        H  0.02741875  0.20485022  0.44756721     0.18100
H657        H  0.96597454  0.28655186  0.38804102     0.18090
N658        N  0.02409667  0.28875494  0.37346719    -0.88630
H659        H  0.98431000  0.18155578  0.46589670     0.35470
H660        H  0.95693710  0.17790598  0.43748051     0.40560
H661        H  0.04758291  0.28369609  0.36788679     0.40180
H662        H  0.02136254  0.31281579  0.37979148     0.35070
C663        C  0.04043287  0.26276663  0.48433004    -0.26660
C664        C  0.06795778  0.25589260  0.46670501    -0.14730
C665        C  0.09683864  0.25402929  0.48492877     0.35900
C666        C  0.09557666  0.25243897  0.51875661    -0.26110
C667        C  0.06681099  0.25502220  0.53615064    -0.15350
C668        C  0.04068404  0.26633695  0.51727542     0.36980
N669        N  0.01499331  0.28420821  0.53081333    -0.89600
H670        H  0.01830639  0.26884097  0.47255480     0.18100
H671        H  0.11803166  0.25020589  0.53045503     0.18090
N672        N  0.12785037  0.25219746  0.47059966    -0.88630
H673        H  0.99383983  0.27370609  0.52329620     0.35470
H674        H  0.01540115  0.30736585  0.52084216     0.40560
H675        H  0.12707503  0.25311715  0.44576589     0.40180
H676        H  0.13789320  0.22994518  0.47685965     0.35070
C677        C  0.97519553  0.25852623  0.60124348    -0.26660
C678        C  0.96042059  0.24339415  0.57499377    -0.14730
C679        C  0.97977271  0.22081712  0.55843024     0.35900
C680        C  0.01290984  0.22155339  0.56236732    -0.26110
C681        C  0.02816905  0.24488332  0.58145113    -0.15350
C682        C  0.00815230  0.26184645  0.60324885     0.36980
N683        N  0.01930276  0.28232471  0.62805884    -0.89600
H684        H  0.96106196  0.27083285  0.61903446     0.18100
H685        H  0.02739412  0.20549027  0.54811613     0.18090
N686        N  0.96645752  0.19731300  0.53755053    -0.88630
H687        H  0.02932916  0.30301726  0.61830393     0.35470
H688        H  0.03483121  0.26964145  0.64302765     0.40560
H689        H  0.95437170  0.18067219  0.55179731     0.40180
H690        H  0.98422861  0.18429674  0.52583827     0.35070
C691        C  0.91006821  0.22165424  0.51351913    -0.26660
C692        C  0.91870953  0.25019372  0.52955556    -0.14730
C693        C  0.92302110  0.27710377  0.50873310     0.35900
C694        C  0.93063264  0.27225077  0.47626287    -0.26110
C695        C  0.92008364  0.24484513  0.45991759    -0.15350
C696        C  0.90892961  0.21910514  0.47985315     0.36980
N697        N  0.89909359  0.18896465  0.46709918    -0.89600
H698        H  0.90487701  0.19999121  0.52692549     0.18100
H699        H  0.93925164  0.29248094  0.46232046     0.18090
N700        N  0.91114824  0.30822870  0.51727018    -0.88630
H701        H  0.87577250  0.18486688  0.47457914     0.35470
H702        H  0.91329298  0.17065554  0.47696758     0.40560
H703        H  0.88662032  0.30635482  0.52050527     0.40180
H704        H  0.91473217  0.32506164  0.49883433     0.35070
C705        C  0.91851922  0.19737300  0.60217704    -0.26660
C706        C  0.90431546  0.22200753  0.58294351    -0.14730
C707        C  0.87155095  0.21865415  0.57571473     0.35900
C708        C  0.85572898  0.19015889  0.58360548    -0.26110
C709        C  0.87166579  0.16393176  0.59798457    -0.15350
C710        C  0.90309789  0.16804926  0.60851836     0.36980
N711        N  0.91950922  0.14247652  0.62522616    -0.89600
H712        H  0.94255874  0.19961179  0.61079670     0.18100
H713        H  0.83127517  0.18776214  0.57595927     0.18090
N714        N  0.85470642  0.24341005  0.55839991    -0.88630
H715        H  0.94151785  0.15028753  0.63357394     0.35470
H716        H  0.92453317  0.12456541  0.60857147     0.40560
H717        H  0.83520967  0.25048861  0.57219937     0.40180
H718        H  0.84602762  0.23366598  0.53712891     0.35070
C719        C  0.90465444  0.16248317  0.38059771    -0.26660
C720        C  0.87278722  0.15974556  0.38942928    -0.14730
C721        C  0.85690229  0.18681086  0.40179947     0.35900
C722        C  0.87448406  0.21385717  0.41003299    -0.26110
C723        C  0.90777430  0.21511050  0.40630343    -0.15350
C724        C  0.92185513  0.19048394  0.38687238     0.36980
N725        N  0.95190084  0.19332943  0.37093714    -0.89600
H726        H  0.91640759  0.14253509  0.36891508     0.18100
H727        H  0.86230219  0.23320301  0.42192277     0.18090
N728        N  0.82349432  0.18578482  0.40882721    -0.88630
H729        H  0.97063739  0.18601014  0.38562713     0.35470
H730        H  0.95514678  0.21629239  0.36138106     0.40560
H731        H  0.81145782  0.18471157  0.38691821     0.40180
H732        H  0.81591578  0.20699253  0.41975030     0.35070
C733        C  0.08828040  0.19622566  0.44159381    -0.26660
C734        C  0.08257373  0.22060249  0.41830132    -0.14730
C735        C  0.08720764  0.21161252  0.38564682     0.35900
C736        C  0.10104411  0.18147944  0.37808127    -0.26110
C737        C  0.10778820  0.15874274  0.40223024    -0.15350
C738        C  0.10083149  0.16650143  0.43422596     0.36980
N739        N  0.10735704  0.14506097  0.46052982    -0.89600
H740        H  0.08175689  0.19892492  0.46642743     0.18100
H741        H  0.10580084  0.17561489  0.35327237     0.18090
N742        N  0.07705880  0.23230502  0.35996807    -0.88630
H743        H  0.13166223  0.14003988  0.46073096     0.35470
H744        H  0.09433527  0.12405448  0.45764095     0.40560
H745        H  0.06014673  0.22008106  0.34650080     0.40180
H746        H  0.09653692  0.23677385  0.34509024     0.35070
C747        C  0.08942660  0.16361086  0.60394882    -0.26660
C748        C  0.12133482  0.16317380  0.59529256    -0.14730
C749        C  0.13587333  0.19233831  0.58641866     0.35900
C750        C  0.11710553  0.22007169  0.58244564    -0.26110
C751        C  0.08374798  0.21984150  0.58574201    -0.15350
C752        C  0.07113612  0.19176280  0.60170199     0.36980
N753        N  0.04355640  0.19219247  0.62182740    -0.89600
H754        H  0.07885865  0.14208125  0.61399312     0.18100
H755        H  0.12906503  0.24253972  0.57811850     0.18090
N756        N  0.16944637  0.19369532  0.58038731    -0.88630
H757        H  0.02308263  0.18584491  0.60945848     0.35470
H758        H  0.04166307  0.21358908  0.63448671     0.40560
H759        H  0.18102015  0.19016735  0.60236430     0.40180
H760        H  0.17594185  0.21652452  0.57215237     0.35070
C761        C  0.91154601  0.27700687  0.37129404    -0.26660
C762        C  0.90879990  0.27461139  0.40506176    -0.14730
C763        C  0.89101072  0.29993444  0.41998181     0.35900
C764        C  0.88707807  0.32963118  0.40371785    -0.26110
C765        C  0.89538793  0.33317616  0.37144057    -0.15350
C766        C  0.90570128  0.30573367  0.35461466     0.36980
N767        N  0.91300339  0.30678870  0.32103932    -0.89600
H768        H  0.92132321  0.25724990  0.35789691     0.18100
H769        H  0.87694087  0.35000870  0.41613701     0.18090
N770        N  0.87550883  0.29557372  0.45040783    -0.88630
H771        H  0.93063803  0.32388564  0.31700862     0.35470
H772        H  0.89251468  0.31346349  0.30839047     0.40560
H773        H  0.85713146  0.27925581  0.44738089     0.40180
H774        H  0.86481416  0.31693484  0.45796981     0.35070
C775        C  0.10728525  0.28609318  0.39625396    -0.26660
C776        C  0.08029868  0.28493262  0.41651041    -0.14730
C777        C  0.06711504  0.31515817  0.42594556     0.35900
C778        C  0.07903520  0.34385417  0.41370406    -0.26110
C779        C  0.10229585  0.34424976  0.39000287    -0.15350
C780        C  0.11792170  0.31512381  0.38236768     0.36980
N781        N  0.14433821  0.31401373  0.36058217    -0.89600
H782        H  0.12024483  0.26447390  0.39048484     0.18100
H783        H  0.06697905  0.36595124  0.42023097     0.18090
N784        N  0.03998525  0.31739636  0.44642122    -0.88630
H785        H  0.16358451  0.30391510  0.37305780     0.35470
H786        H  0.15148965  0.33713463  0.35411620     0.40560
H787        H  0.02181898  0.32974267  0.43428144     0.40180
H788        H  0.04619323  0.33086540  0.46648546     0.35070
C789        C  0.21842606  0.40951733  0.12179513    -0.26660
C790        C  0.21818726  0.41140519  0.08778550    -0.14730
C791        C  0.18873211  0.40212226  0.07253426     0.35900
C792        C  0.16212099  0.39430604  0.09121918    -0.26110
C793        C  0.16242205  0.39617146  0.12448874    -0.15350
C794        C  0.19148650  0.40188052  0.14007559     0.36980
N795        N  0.19331139  0.40181638  0.17454710    -0.89600
H796        H  0.23974589  0.41568304  0.13473553     0.18100
H797        H  0.13995216  0.38921979  0.07911179     0.18090
N798        N  0.18349691  0.40199111  0.03856430    -0.88630
H799        H  0.21617869  0.40749920  0.18229921     0.35470
H800        H  0.18900463  0.37835409  0.18250519     0.40560
H801        H  0.16334308  0.41569497  0.03280054     0.40180
H802        H  0.17809646  0.37844122  0.03210161     0.35070
C803        C  0.27716065  0.44192846  0.98460230    -0.26660
C804        C  0.25509333  0.42476089  0.96622102    -0.14730
C805        C  0.23965845  0.39924876  0.98427850     0.35900
C806        C  0.24235579  0.39794419  0.01804355    -0.26110
C807        C  0.25505452  0.42324601  0.03564213    -0.15350
C808        C  0.27782215  0.44109412  0.01805113     0.36980
N809        N  0.30448130  0.45594099  0.03257710    -0.89600
H810        H  0.29624662  0.45467022  0.97400882     0.18100
H811        H  0.23362487  0.37695721  0.03056405     0.18090
N812        N  0.22307455  0.37269936  0.97032896    -0.88630
H813        H  0.31953088  0.43797383  0.04153217     0.35470
H814        H  0.29673509  0.47118227  0.05045357     0.40560
H815        H  0.22901928  0.36792492  0.94667393     0.40180
H816        H  0.19864810  0.37661380  0.97245928     0.35070
C817        C  0.28367624  0.48519380  0.92538591    -0.26660
C818        C  0.25577826  0.46782746  0.91888984    -0.14730
C819        C  0.23214203  0.48638176  0.90200389     0.35900
C820        C  0.23265561  0.52020981  0.90229641    -0.26110
C821        C  0.25737076  0.53793719  0.91669795    -0.15350
C822        C  0.28422709  0.51898635  0.92689546     0.36980
N823        N  0.31112083  0.53358539  0.94184339    -0.89600
H824        H  0.30577683  0.47256768  0.92969250     0.18100
H825        H  0.21225974  0.53188026  0.89164529     0.18090
N826        N  0.20836353  0.47181302  0.88247188    -0.88630
H827        H  0.33142743  0.52708705  0.92896079     0.35470
H828        H  0.31367120  0.52384980  0.96490138     0.40560
H829        H  0.21152048  0.47967086  0.85877937     0.40180
H830        H  0.18605593  0.47990106  0.89005692     0.35070
C831        C  0.18057931  0.59873513  0.13226921    -0.26660
C832        C  0.15379342  0.60250865  0.11276710    -0.14730
C833        C  0.15764686  0.60000854  0.07920212     0.35900
C834        C  0.18799998  0.59276359  0.06633954    -0.26110
C835        C  0.21479632  0.58634138  0.08620774    -0.15350
C836        C  0.21005589  0.58952596  0.11987894     0.36980
N837        N  0.23498326  0.58287310  0.14227069    -0.89600
H838        H  0.17823890  0.60018126  0.15812373     0.18100
H839        H  0.18960032  0.58942092  0.04074221     0.18090
N840        N  0.13077922  0.60399632  0.05821044    -0.88630
H841        H  0.22738833  0.56464654  0.15786012     0.35470
H842        H  0.23877518  0.60342552  0.15591133     0.40560
H843        H  0.11640360  0.58384800  0.06114495     0.40180
H844        H  0.13802801  0.60395286  0.03421916     0.35070
C845        C  0.25452345  0.48053647  0.10585399    -0.26660
C846        C  0.24181974  0.46476798  0.07920705    -0.14730
C847        C  0.21905857  0.48404551  0.06196285     0.35900
C848        C  0.21790830  0.51735428  0.06587124    -0.26110
C849        C  0.24157246  0.53379549  0.08291754    -0.15350
C850        C  0.25821904  0.51431566  0.10636471     0.36980
N851        N  0.27853520  0.52624767  0.13122016    -0.89600
H852        H  0.26319753  0.46648273  0.12598859     0.18100
H853        H  0.20119869  0.53072462  0.05104245     0.18090
N854        N  0.19618338  0.47170956  0.04031101    -0.88630
H855        H  0.26867556  0.51965440  0.15332217     0.35470
H856        H  0.28032086  0.55093963  0.13146210     0.40560
H857        H  0.17872554  0.46040669  0.05382149     0.40180
H858        H  0.20671433  0.45729416  0.02303795     0.35070
C859        C  0.25158537  0.54866555  0.98203238    -0.26660
C860        C  0.25237785  0.57757343  0.96403879    -0.14730
C861        C  0.24908372  0.60556823  0.98414545     0.35900
C862        C  0.24591272  0.60271714  0.01808134    -0.26110
C863        C  0.24867038  0.57311162  0.03465086    -0.15350
C864        C  0.25662401  0.54710463  0.01485849     0.36980
N865        N  0.27225861  0.51920855  0.02697188    -0.89600
H866        H  0.24820664  0.52551187  0.97159477     0.18100
H867        H  0.24149623  0.62425448  0.03149030     0.18090
N868        N  0.24742179  0.63749539  0.97211463    -0.88630
H869        H  0.25976861  0.49961947  0.01836973     0.35470
H870        H  0.29491534  0.51844283  0.01683522     0.40560
H871        H  0.22867519  0.63960400  0.95595937     0.40180
H872        H  0.26957620  0.64352584  0.96303438     0.35070
C873        C  0.19342599  0.59032432  0.92945749    -0.26660
C874        C  0.22114558  0.58691049  0.91046492    -0.14730
C875        C  0.21765294  0.59106557  0.87665305     0.35900
C876        C  0.18811848  0.59908436  0.86334955    -0.26110
C877        C  0.16065816  0.60089225  0.88218060    -0.15350
C878        C  0.16340112  0.59681321  0.91573007     0.36980
N879        N  0.13574021  0.59861775  0.93583771    -0.89600
H880        H  0.19431624  0.58611375  0.95504419     0.18100
H881        H  0.18637788  0.60123063  0.83745602     0.18090
N882        N  0.24371752  0.58540910  0.85534069    -0.88630
H883        H  0.14224419  0.59842454  0.96006417     0.35470
H884        H  0.12275177  0.57765306  0.93243373     0.40560
H885        H  0.24740175  0.60630224  0.84174829     0.40180
H886        H  0.23746789  0.56703409  0.83969729     0.35070
C887        C  0.16276539  0.41709068  0.91769754    -0.26660
C888        C  0.16134649  0.39992118  0.88902785    -0.14730
C889        C  0.18994151  0.38877145  0.87524743     0.35900
C890        C  0.21925265  0.39742060  0.88887046    -0.26110
C891        C  0.22107515  0.41747217  0.91603095    -0.15350
C892        C  0.19181730  0.42659031  0.93101844     0.36980
N893        N  0.19144067  0.44613003  0.95934724    -0.89600
H894        H  0.14091963  0.42547707  0.92857520     0.18100
H895        H  0.24063863  0.38938146  0.87705497     0.18090
N896        N  0.18927503  0.36993897  0.84654084    -0.88630
H897        H  0.16837585  0.44897119  0.96815927     0.35470
H898        H  0.19931003  0.46908823  0.95331451     0.40560
H899        H  0.17838197  0.34815155  0.85228211     0.40180
H900        H  0.21228128  0.36430288  0.83895129     0.35070
C901        C  0.10079830  0.31224429  0.63430879    -0.26660
C902        C  0.09486027  0.34152952  0.61833951    -0.14730
C903        C  0.08297785  0.34073856  0.58672309     0.35900
C904        C  0.07523107  0.31144743  0.57302589    -0.26110
C905        C  0.07784958  0.28170366  0.58985142    -0.15350
C906        C  0.09218635  0.28267604  0.62094561     0.36980
N907        N  0.09661427  0.25425959  0.64020667    -0.89600
H908        H  0.11007075  0.31225047  0.65857844     0.18100
H909        H  0.06573173  0.31303346  0.54911662     0.18090
N910        N  0.07734844  0.36925886  0.56791693    -0.88630
H911        H  0.08485887  0.25726171  0.66205768     0.35470
H912        H  0.12084307  0.25184539  0.64523832     0.40560
H913        H  0.09804362  0.38294076  0.56751849     0.40180
H914        H  0.05877291  0.38243855  0.57805000     0.35070
C915        C  0.92511869  0.34081060  0.59242259    -0.26660
C916        C  0.90119160  0.34288617  0.61540346    -0.14730
C917        C  0.88332220  0.31511390  0.62222751     0.35900
C918        C  0.88994164  0.28632810  0.60606444    -0.26110
C919        C  0.91461619  0.28355135  0.58291011    -0.15350
C920        C  0.93308205  0.31195057  0.57773813     0.36980
N921        N  0.96147583  0.31171638  0.55888724    -0.89600
H922        H  0.94004699  0.36136105  0.58745707     0.18100
H923        H  0.87634310  0.26585608  0.61370098     0.18090
N924        N  0.85885296  0.31489939  0.64605525    -0.88630
H925        H  0.98029128  0.31812948  0.57384581     0.35470
H926        H  0.95997630  0.32984335  0.54138011     0.40560
H927        H  0.84258462  0.33325302  0.64059400     0.40180
H928        H  0.86901309  0.31915214  0.66847127     0.35070
C929        C  0.40713418  0.09619391  0.34193607    -0.26660
C930        C  0.37581136  0.10627883  0.33783071    -0.14730
C931        C  0.36434046  0.11065269  0.30619467     0.35900
C932        C  0.38367628  0.10253283  0.28001646    -0.26110
C933        C  0.41332184  0.08659116  0.28394308    -0.15350
C934        C  0.42549936  0.08540742  0.31626923     0.36980
N935        N  0.45625267  0.07286499  0.32430373    -0.89600
H936        H  0.41690237  0.09368547  0.36592751     0.18100
H937        H  0.37414609  0.10789494  0.25669505     0.18090
N938        N  0.33293434  0.12243396  0.29961427    -0.88630
H939        H  0.45359922  0.05431889  0.34119870     0.35470
H940        H  0.46930275  0.09111615  0.33506061     0.40560
H941        H  0.32961834  0.14407518  0.31169039     0.40180
H942        H  0.31646807  0.10565162  0.30786998     0.35070
C943        C  0.62284225  0.92055897  0.28102350    -0.26660
C944        C  0.58974875  0.91558340  0.27825286    -0.14730
C945        C  0.57551535  0.89600663  0.30268433     0.35900
C946        C  0.59202635  0.88943539  0.33143013    -0.26110
C947        C  0.62353152  0.89873733  0.33540375    -0.15350
C948        C  0.63967222  0.91240994  0.30889786     0.36980
N949        N  0.67241508  0.92131050  0.31052697    -0.89600
H950        H  0.63521175  0.93363347  0.26225756     0.18100
H951        H  0.57989578  0.87738844  0.35101306     0.18090
N952        N  0.54478166  0.88215441  0.29888208    -0.88630
H953        H  0.68599758  0.90071286  0.31540030     0.35470
H954        H  0.67536551  0.93772168  0.32908422     0.40560
H955        H  0.53044788  0.88950780  0.31795501     0.40180
H956        H  0.54724038  0.85717823  0.30038550     0.35070
C957        C  0.37642074  0.91412236  0.27640163    -0.26660
C958        C  0.40994524  0.91193602  0.27709203    -0.14730
C959        C  0.42366961  0.89643058  0.30467241     0.35900
C960        C  0.40519637  0.89134397  0.33236027    -0.26110
C961        C  0.37269600  0.89840308  0.33267974    -0.15350
C962        C  0.35794642  0.90817006  0.30359473     0.36980
N963        N  0.32456877  0.91465860  0.30128341    -0.89600
H964        H  0.36459188  0.92359729  0.25517481     0.18100
H965        H  0.41651336  0.88202681  0.35394025     0.18090
N966        N  0.45555477  0.88430273  0.30482564    -0.88630
H967        H  0.31859004  0.93295421  0.31721534     0.35470
H968        H  0.31225289  0.89377521  0.30736720     0.40560
H969        H  0.45481022  0.85947642  0.30874674     0.40180
H970        H  0.46760196  0.89445958  0.32413635     0.35070
C971        C  0.40540385  0.98086969  0.26906015    -0.26660
C972        C  0.42316457  0.96411299  0.24529077    -0.14730
C973        C  0.43863242  0.98412196  0.22180762     0.35900
C974        C  0.43666308  0.01775496  0.22382549    -0.26110
C975        C  0.42208291  0.03376662  0.24975771    -0.15350
C976        C  0.40375028  0.01460732  0.27084653     0.36980
N977        N  0.38483850  0.02861009  0.29561821    -0.89600
H978        H  0.39383383  0.96855123  0.28851127     0.18100
H979        H  0.45007663  0.03165793  0.20646641     0.18090
N980        N  0.45844835  0.97197860  0.19649314    -0.88630
H981        H  0.39294221  0.01983338  0.31779309     0.35470
H982        H  0.36139927  0.02117132  0.29256089     0.40560
H983        H  0.45870578  0.94715409  0.19510692     0.40180
H984        H  0.48173392  0.97899914  0.20129631     0.35070
C985        C  0.48085741  0.93948800  0.27502050    -0.26660
C986        C  0.46553166  0.92156452  0.25106548    -0.14730
C987        C  0.48602933  0.90248794  0.23176616     0.35900
C988        C  0.51914662  0.90410414  0.23563794    -0.26110
C989        C  0.53434754  0.92844513  0.25354308    -0.15350
C990        C  0.51396719  0.94387806  0.27617279     0.36980
N991        N  0.52531774  0.96253547  0.30220417    -0.89600
H992        H  0.46642153  0.95147421  0.29284601     0.18100
H993        H  0.53298165  0.88671761  0.22246051     0.18090
N994        N  0.47445397  0.88176135  0.20740018    -0.88630
H995        H  0.54181597  0.94920552  0.31549229     0.35470
H996        H  0.53467512  0.98384742  0.29349455     0.40560
H997        H  0.48297101  0.85852117  0.21210318     0.40180
H998        H  0.48365054  0.88924701  0.18529261     0.35070
C999        C  0.60918836  0.11399393  0.28620214    -0.26660
C1000       C  0.58472937  0.09087009  0.28544111    -0.14730
C1001       C  0.57236654  0.08071603  0.31593281     0.35900
C1002       C  0.58644380  0.09061147  0.34442109    -0.26110
C1003       C  0.61413569  0.10873093  0.34438055    -0.15350
C1004       C  0.62486562  0.12172130  0.31486885     0.36980
N1005       N  0.65180041  0.14242318  0.31300387    -0.89600
H1006       H  0.61754015  0.12542743  0.26453824     0.18100
H1007       H  0.57726851  0.08090918  0.36677891     0.18090
N1008       N  0.54675502  0.05842479  0.31861441    -0.88630
H1009       H  0.67213822  0.12949293  0.31967176     0.35470
H1010       H  0.64838808  0.16135379  0.32894254     0.40560
H1011       H  0.52844929  0.06929913  0.33159939     0.40180
H1012       H  0.55456542  0.03823911  0.33159785     0.35070
C1013       C  0.59546847  0.02260222  0.27529055    -0.26660
C1014       C  0.58413750  0.04082565  0.24877724    -0.14730
C1015       C  0.57835215  0.02259927  0.22056302     0.35900
C1016       C  0.58101114  0.98916284  0.22147666    -0.26110
C1017       C  0.58089977  0.97085830  0.25023825    -0.15350
C1018       C  0.59135737  0.98895148  0.27756618     0.36980
N1019       N  0.59678842  0.97452878  0.30848726    -0.89600
H1020       H  0.60474740  0.03418991  0.29624461     0.18100
H1021       H  0.58346794  0.97855691  0.19854411     0.18090
N1022       N  0.56749157  0.03620950  0.19075836    -0.88630
H1023       H  0.62035538  0.97884003  0.31495705     0.35470
H1024       H  0.58254619  0.98614961  0.32536044     0.40560
H1025       H  0.58505272  0.05038121  0.18039845     0.40180
H1026       H  0.54641256  0.04901193  0.19429590     0.35070
C1027       C  0.51866441  0.04742763  0.25768440    -0.26660
C1028       C  0.53471852  0.07692999  0.25636566    -0.14730
C1029       C  0.51570345  0.10502585  0.26307184     0.35900
C1030       C  0.48233749  0.10239761  0.26468658    -0.26110
C1031       C  0.46713317  0.07249211  0.26107823    -0.15350
C1032       C  0.48709727  0.04541841  0.26537155     0.36980
N1033       N  0.47855305  0.01767096  0.28380027    -0.89600
H1034       H  0.53082545  0.02474504  0.25807008     0.18100
H1035       H  0.46806930  0.12408864  0.26633723     0.18090
N1036       N  0.52858430  0.13672309  0.26616268    -0.88630
H1037       H  0.47691643  0.99889553  0.26789642     0.35470
H1038       H  0.45767057  0.02043643  0.29669619     0.40560
H1039       H  0.55281775  0.13752164  0.26171419     0.40180
H1040       H  0.52510837  0.14385957  0.28988326     0.35070
C1041       C  0.57379894  0.90996701  0.15853895    -0.26660
C1042       C  0.59628818  0.88523187  0.15772074    -0.14730
C1043       C  0.61334342  0.87760090  0.18587328     0.35900
C1044       C  0.60612724  0.89374192  0.21445572    -0.26110
C1045       C  0.58230816  0.91819496  0.21649508    -0.15350
C1046       C  0.56574782  0.92549973  0.18697210     0.36980
N1047       N  0.53873020  0.94689341  0.18582843    -0.89600
H1048       H  0.55979213  0.91523615  0.13721867     0.18100
H1049       H  0.61854572  0.88472407  0.23523238     0.18090
N1050       N  0.63680697  0.85233078  0.18712793    -0.88630
H1051       H  0.51916704  0.93398908  0.17775714     0.35470
H1052       H  0.54276590  0.96459902  0.16833722     0.40560
H1053       H  0.64119120  0.84268641  0.16457922     0.40180
H1054       H  0.62787412  0.83383165  0.20158993     0.35070
C1055       C  0.40251151  0.86020927  0.18676077    -0.26660
C1056       C  0.39711012  0.87823441  0.15857660    -0.14730
C1057       C  0.39488579  0.91191586  0.16108538     0.35900
C1058       C  0.40128715  0.92658225  0.19052079    -0.26110
C1059       C  0.41381892  0.90902537  0.21715284    -0.15350
C1060       C  0.41076726  0.87497487  0.21572850     0.36980
N1061       N  0.41780176  0.85494687  0.24306227    -0.89600
H1062       H  0.40289297  0.83420427  0.18590804     0.18100
H1063       H  0.39786770  0.95222221  0.19128009     0.18090
N1064       N  0.38645716  0.93202726  0.13425042    -0.88630
H1065       H  0.43550547  0.83843329  0.23686942     0.35470
H1066       H  0.39738166  0.84197856  0.24875168     0.40560
H1067       H  0.36510692  0.92384239  0.12463678     0.40180
H1068       H  0.40421237  0.93041789  0.11686509     0.35070
C1069       C  0.30671227  0.57934199  0.89279968    -0.26660
C1070       C  0.28171295  0.59558005  0.90927666    -0.14730
C1071       C  0.28410816  0.63011268  0.90653976     0.35900
C1072       C  0.31396519  0.64405635  0.90143383    -0.26110
C1073       C  0.34095029  0.62563100  0.89448875    -0.15350
C1074       C  0.33680009  0.59303340  0.88793067     0.36980
N1075       N  0.36266338  0.57401190  0.87575996    -0.89600
H1076       H  0.30366832  0.55538171  0.88396739     0.18100
H1077       H  0.31584484  0.66997895  0.90245266     0.18090
N1078       N  0.25771501  0.65206069  0.90252212    -0.88630
H1079       H  0.35490833  0.55104424  0.86979425     0.35470
H1080       H  0.37898356  0.57064231  0.89441199     0.40560
H1081       H  0.23550250  0.64212952  0.90486175     0.40180
H1082       H  0.25957492  0.67110637  0.91851936     0.35070
C1083       C  0.30588749  0.56883996  0.07854496    -0.26660
C1084       C  0.27733639  0.58596785  0.08418384    -0.14730
C1085       C  0.28016753  0.61775923  0.09655838     0.35900
C1086       C  0.31039141  0.63008281  0.10357010    -0.26110
C1087       C  0.33840125  0.61306557  0.09674963    -0.15350
C1088       C  0.33580799  0.58165310  0.08458891     0.36980
N1089       N  0.36297464  0.56221959  0.07713492    -0.89600
H1090       H  0.30514411  0.54485006  0.06911645     0.18100
H1091       H  0.31204630  0.65443432  0.11228334     0.18090
N1092       N  0.25306452  0.63850715  0.10070374    -0.88630
H1093       H  0.37738829  0.56032804  0.09751464     0.35470
H1094       H  0.37554118  0.57302756  0.05837028     0.40560
H1095       H  0.24582002  0.64677274  0.07816068     0.40180
H1096       H  0.25900495  0.65894227  0.11370223     0.35070
C1097       C  0.33059970  0.40668465  0.87978365    -0.26660
C1098       C  0.34100960  0.38004150  0.89773482    -0.14730
C1099       C  0.32104139  0.36681605  0.92112851     0.35900
C1100       C  0.29276805  0.38250093  0.92880138    -0.26110
C1101       C  0.28258798  0.41129505  0.91342403    -0.15350
C1102       C  0.30087102  0.42125351  0.88600059     0.36980
N1103       N  0.28911544  0.44352826  0.86225677    -0.89600
H1104       H  0.34525562  0.41577861  0.86042180     0.18100
H1105       H  0.27984855  0.37218275  0.94831737     0.18090
N1106       N  0.33061441  0.33828853  0.93862545    -0.88630
H1107       H  0.29792900  0.46638640  0.86683752     0.35470
H1108       H  0.26437282  0.44374491  0.86172118     0.40560
H1109       H  0.33088010  0.31925670  0.92246823     0.40180
H1110       H  0.31401733  0.33228228  0.95628675     0.35070
C1111       C  0.27982039  0.37711585  0.08683616    -0.26660
C1112       C  0.27953284  0.41118082  0.08837190    -0.14730
C1113       C  0.30862982  0.42525955  0.10037899     0.35900
C1114       C  0.33538262  0.40585068  0.10700167    -0.26110
C1115       C  0.33563870  0.37295582  0.10183373    -0.15350
C1116       C  0.30692284  0.35811765  0.09335217     0.36980
N1117       N  0.30565041  0.32387721  0.08943047    -0.89600
H1118       H  0.25873271  0.36486477  0.07893224     0.18100
H1119       H  0.35727536  0.41734287  0.11408740     0.18090
N1120       N  0.31377306  0.45897762  0.10374718    -0.88630
H1121       H  0.28314677  0.31681807  0.08176898     0.35470
H1122       H  0.30912845  0.31332573  0.11205746     0.40560
H1123       H  0.33368149  0.46567914  0.09033574     0.40180
H1124       H  0.31927824  0.46331200  0.12779843     0.35070
C1125       C  0.44447783  0.10347608  0.20297240    -0.26660
C1126       C  0.42146463  0.08674504  0.22123375    -0.14730
C1127       C  0.39154748  0.08173980  0.20540927     0.35900
C1128       C  0.38527174  0.09541818  0.17472721    -0.26110
C1129       C  0.40840467  0.11324992  0.15864211    -0.15350
C1130       C  0.43805717  0.11730072  0.17328738     0.36980
N1131       N  0.46283663  0.13530032  0.15819113    -0.89600
H1132       H  0.46881767  0.10533527  0.20986145     0.18100
H1133       H  0.36254670  0.09151087  0.16328725     0.18090
N1134       N  0.36788326  0.06149901  0.21957475    -0.88630
H1135       H  0.45457942  0.15865543  0.15370214     0.35470
H1136       H  0.46858714  0.12431309  0.13655309     0.40560
H1137       H  0.36403600  0.04227569  0.20414286     0.40180
H1138       H  0.34664657  0.07455998  0.22107416     0.35070
C1139       C  0.55929431  0.11089554  0.20213803    -0.26660
C1140       C  0.58243679  0.09622762  0.22231635    -0.14730
C1141       C  0.61436279  0.09602796  0.21053247     0.35900
C1142       C  0.62170574  0.10996491  0.18019536    -0.26110
C1143       C  0.59766651  0.12323251  0.16078177    -0.15350
C1144       C  0.56655528  0.12408245  0.17235143     0.36980
N1145       N  0.54155643  0.13786306  0.15320544    -0.89600
H1146       H  0.53439696  0.11076080  0.20751936     0.18100
H1147       H  0.64586812  0.10921033  0.17137155     0.18090
N1148       N  0.63898245  0.07974410  0.22817190    -0.88630
H1149       H  0.53049013  0.15601424  0.16637337     0.35470
H1150       H  0.52498957  0.11990471  0.14878895     0.40560
H1151       H  0.65725072  0.09605007  0.23225200     0.40180
H1152       H  0.64805071  0.06139837  0.21381197     0.35070
C1153       C  0.90343061  0.83389556  0.38414047    -0.26660
C1154       C  0.87170809  0.83614134  0.39381065    -0.14730
C1155       C  0.85685707  0.80836338  0.40639796     0.35900
C1156       C  0.87491108  0.78078913  0.41279264    -0.26110
C1157       C  0.90806650  0.77989784  0.40793893    -0.15350
C1158       C  0.92131112  0.80564314  0.38950596     0.36980
N1159       N  0.95203327  0.80319452  0.37496417    -0.89600
H1160       H  0.91459601  0.85438417  0.37269256     0.18100
H1161       H  0.86332630  0.76066974  0.42446086     0.18090
N1162       N  0.82402223  0.80797166  0.41531751    -0.88630
H1163       H  0.96557107  0.82283345  0.38197945     0.35470
H1164       H  0.94907993  0.80504264  0.35009799     0.40560
H1165       H  0.81028838  0.81333588  0.39502543     0.40180
H1166       H  0.82000906  0.82529971  0.43285098     0.35070
C1167       C  0.89531865  0.69632010  0.42325783    -0.26660
C1168       C  0.91201733  0.72044413  0.40591899    -0.14730
C1169       C  0.91320774  0.71677682  0.37206315     0.35900
C1170       C  0.90446907  0.68764009  0.35810358    -0.26110
C1171       C  0.89434882  0.66152590  0.37688475    -0.15350
C1172       C  0.88834676  0.66632529  0.40964664     0.36980
N1173       N  0.87497063  0.64101077  0.42894106    -0.89600
H1174       H  0.88871723  0.69982668  0.44796061     0.18100
H1175       H  0.90800978  0.68473995  0.33252936     0.18090
N1176       N  0.92442710  0.74212613  0.35165038    -0.88630
H1177       H  0.87022571  0.64910648  0.45212281     0.35470
H1178       H  0.89218113  0.62296230  0.43151220     0.40560
H1179       H  0.90624581  0.74833043  0.33559712     0.40180
H1180       H  0.94359958  0.73349414  0.33826779     0.35070
C1181       C  0.92274719  0.80552721  0.59966513    -0.26660
C1182       C  0.90730067  0.77939555  0.58449963    -0.14730
C1183       C  0.87330207  0.78162229  0.58197936     0.35900
C1184       C  0.85742470  0.80946841  0.59212186    -0.26110
C1185       C  0.87383848  0.83663061  0.60247146    -0.15350
C1186       C  0.90670206  0.83417532  0.60749158     0.36980
N1187       N  0.92396552  0.86124952  0.61933344    -0.89600
H1188       H  0.94798242  0.80512112  0.60392419     0.18100
H1189       H  0.83197555  0.81095086  0.58846364     0.18090
N1190       N  0.85396000  0.75741848  0.56728498    -0.88630
H1191       H  0.94820246  0.85592474  0.62112304     0.35470
H1192       H  0.91596016  0.86570201  0.64261414     0.40560
H1193       H  0.86702592  0.73796221  0.55895431     0.40180
H1194       H  0.84297168  0.76771318  0.54710816     0.35070
C1195       C  0.89645669  0.71435903  0.60931147    -0.26660
C1196       C  0.92074718  0.71791939  0.58588796    -0.14730
C1197       C  0.94056515  0.69001972  0.58140301     0.35900
C1198       C  0.93195472  0.66026262  0.59446420    -0.26110
C1199       C  0.90609809  0.65686376  0.61521103    -0.15350
C1200       C  0.88875481  0.68469433  0.62337886     0.36980
N1201       N  0.86352593  0.68403353  0.64639731    -0.89600
H1202       H  0.88323142  0.73461341  0.61809120     0.18100
H1203       H  0.94740276  0.63986996  0.58990427     0.18090
N1204       N  0.97081790  0.69158878  0.56545920    -0.88630
H1205       H  0.87280989  0.67760207  0.66883871     0.35470
H1206       H  0.84690911  0.66698704  0.63932420     0.40560
H1207       H  0.97184731  0.67398792  0.54775800     0.40180
H1208       H  0.98838519  0.68543888  0.58223422     0.35070
C1209       C  0.92892724  0.72288423  0.51327813    -0.26660
C1210       C  0.91957351  0.75007580  0.53090523    -0.14730
C1211       C  0.90825850  0.77648928  0.51147022     0.35900
C1212       C  0.90851005  0.77482344  0.47766849    -0.26110
C1213       C  0.92214430  0.74887638  0.46060887    -0.15350
C1214       C  0.93409421  0.72304058  0.48007868     0.36980
N1215       N  0.95118628  0.69571467  0.46774487    -0.89600
H1216       H  0.93289479  0.70033999  0.52458721     0.18100
H1217       H  0.90072808  0.79632063  0.46521094     0.18090
N1218       N  0.89818713  0.80638868  0.52496742    -0.88630
H1219       H  0.97384201  0.69572211  0.47802883     0.35470
H1220       H  0.95472429  0.69669983  0.44316977     0.40560
H1221       H  0.87475476  0.81082546  0.51777162     0.40180
H1222       H  0.91206570  0.82486113  0.51541844     0.35070
C1223       C  0.07042637  0.80326306  0.39376989    -0.26660
C1224       C  0.08722322  0.77853808  0.41048057    -0.14730
C1225       C  0.12035763  0.78291509  0.41505780     0.35900
C1226       C  0.13479131  0.81156167  0.40554327    -0.26110
C1227       C  0.11704986  0.83732111  0.39294746    -0.15350
C1228       C  0.08463071  0.83277717  0.38621626     0.36980
N1229       N  0.06544636  0.85770936  0.37205881    -0.89600
H1230       H  0.04559145  0.80089991  0.38789492     0.18100
H1231       H  0.15979792  0.81456288  0.41080800     0.18090
N1232       N  0.13942094  0.75878833  0.43073378    -0.88630
H1233       H  0.07622899  0.86521497  0.35070408     0.35470
H1234       H  0.06443666  0.87710147  0.38771868     0.40560
H1235       H  0.14948060  0.76882619  0.45123035     0.40180
H1236       H  0.15787145  0.75231823  0.41527481     0.35070
C1237       C  0.10261949  0.71429253  0.38745098    -0.26660
C1238       C  0.08077181  0.71662892  0.41318880    -0.14730
C1239       C  0.06682911  0.68752841  0.42442176     0.35900
C1240       C  0.07465619  0.65816458  0.41013643    -0.26110
C1241       C  0.09498642  0.65654960  0.38349111    -0.15350
C1242       C  0.10966448  0.68507916  0.37267402     0.36980
N1243       N  0.13107887  0.68563213  0.34598980    -0.89600
H1244       H  0.11300787  0.73538450  0.37667529     0.18100
H1245       H  0.06270683  0.63675769  0.41864443     0.18090
N1246       N  0.04348321  0.68789282  0.44948400    -0.88630
H1247       H  0.11871335  0.67997641  0.32509569     0.35470
H1248       H  0.14905559  0.66862230  0.35010178     0.40560
H1249       H  0.02242163  0.67852147  0.44032881     0.40180
H1250       H  0.05113235  0.67257647  0.46801588     0.35070
C1251       C  0.98201699  0.73250157  0.39987317    -0.26660
C1252       C  0.96359891  0.75358842  0.41857266    -0.14730
C1253       C  0.98062960  0.77772122  0.43479580     0.35900
C1254       C  0.01384227  0.77572267  0.43806331    -0.26110
C1255       C  0.03243662  0.75270574  0.42160335    -0.15350
C1256       C  0.01519202  0.73476134  0.39815507     0.36980
N1257       N  0.02932267  0.72343253  0.36904787    -0.89600
H1258       H  0.97120842  0.71464810  0.38507392     0.18100
H1259       H  0.02446704  0.79419730  0.45196687     0.18090
N1260       N  0.96429492  0.80528708  0.44690346    -0.88630
H1261       H  0.03530202  0.69914832  0.37115085     0.35470
H1262       H  0.04854105  0.73764114  0.36225376     0.40560
H1263       H  0.96794855  0.80607203  0.47138410     0.40180
H1264       H  0.97453029  0.82588897  0.43695563     0.35070
C1265       C  0.11923944  0.78354665  0.58130920    -0.26660
C1266       C  0.08593371  0.78220038  0.58521197    -0.14730
C1267       C  0.07063880  0.80994227  0.59842788     0.35900
C1268       C  0.08842113  0.83738703  0.60552988    -0.26110
C1269       C  0.12109618  0.83846366  0.60017915    -0.15350
C1270       C  0.13691648  0.81066437  0.58928093     0.36980
N1271       N  0.17061836  0.81080457  0.58376588    -0.89600
H1272       H  0.13152387  0.76316051  0.57098175     0.18100
H1273       H  0.07612125  0.85884944  0.61345350     0.18090
N1274       N  0.03696516  0.81222639  0.60219203    -0.88630
H1275       H  0.17822235  0.78912106  0.57381738     0.35470
H1276       H  0.18169979  0.81227477  0.60615438     0.40560
H1277       H  0.02851939  0.83126508  0.58791155     0.40180
H1278       H  0.03203776  0.81747091  0.62616679     0.35070
C1279       C  0.10554477  0.68338378  0.62326173    -0.26660
C1280       C  0.09109700  0.65643213  0.61004128    -0.14730
C1281       C  0.07086642  0.66094916  0.58339330     0.35900
C1282       C  0.06495069  0.69199662  0.57125677    -0.26110
C1283       C  0.07902798  0.71971524  0.58443757    -0.15350
C1284       C  0.09904221  0.71466579  0.61191337     0.36980
N1285       N  0.11040981  0.74059042  0.63091671    -0.89600
H1286       H  0.12009496  0.68055801  0.64459189     0.18100
H1287       H  0.04866352  0.69457943  0.55121759     0.18090
N1288       N  0.05527349  0.63422832  0.56905181    -0.88630
H1289       H  0.13514953  0.73873830  0.63229145     0.35470
H1290       H  0.10135510  0.73805684  0.65415547     0.40560
H1291       H  0.06154710  0.63367388  0.54479213     0.40180
H1292       H  0.03076660  0.63814959  0.57045041     0.35070
C1293       C  0.01322944  0.76494154  0.54551499    -0.26660
C1294       C  0.03168295  0.75486967  0.57209843    -0.14730
C1295       C  0.01407508  0.74830900  0.60105045     0.35900
C1296       C  0.98054273  0.74945278  0.60073501    -0.26110
C1297       C  0.96346397  0.75828158  0.57271740    -0.15350
C1298       C  0.98135693  0.77264085  0.54834216     0.36980
N1299       N  0.96876563  0.79890197  0.52979182    -0.89600
H1300       H  0.02249000  0.76935112  0.52213114     0.18100
H1301       H  0.96778504  0.74193429  0.62204765     0.18090
N1302       N  0.02883279  0.73998907  0.63099430    -0.88630
H1303       H  0.98736176  0.81084757  0.51828253     0.35470
H1304       H  0.96027480  0.81593183  0.54594156     0.40560
H1305       H  0.04655223  0.75650166  0.63619107     0.40180
H1306       H  0.03814638  0.71676661  0.62991268     0.35070
C1307       C  0.09383181  0.72899555  0.51667424    -0.26660
C1308       C  0.07944494  0.75499250  0.53269489    -0.14730
C1309       C  0.07570069  0.78338698  0.51352885     0.35900
C1310       C  0.07522678  0.78124463  0.47993784    -0.26110
C1311       C  0.07874648  0.75165969  0.46401399    -0.15350
C1312       C  0.09447632  0.72739326  0.48293243     0.36980
N1313       N  0.11393921  0.70294816  0.46884349    -0.89600
H1314       H  0.10526348  0.70969605  0.52991055     0.18100
H1315       H  0.07155102  0.80324547  0.46636613     0.18090
N1316       N  0.06902402  0.81390063  0.52767440    -0.88630
H1317       H  0.10668613  0.68060881  0.47773883     0.35470
H1318       H  0.13730221  0.70630609  0.47651808     0.40560
H1319       H  0.04729783  0.82250086  0.51883043     0.40180
H1320       H  0.08665489  0.82991388  0.52037053     0.35070
C1321       C  0.80910717  0.43001848  0.92699970    -0.26660
C1322       C  0.78131196  0.41818101  0.91210613    -0.14730
C1323       C  0.78597688  0.40008966  0.88344511     0.35900
C1324       C  0.81684801  0.39320112  0.87251314    -0.26110
C1325       C  0.84392178  0.40533096  0.88756223    -0.15350
C1326       C  0.83984256  0.42404511  0.91530212     0.36980
N1327       N  0.86669112  0.43795366  0.93116043    -0.89600
H1328       H  0.80684286  0.44441779  0.94832658     0.18100
H1329       H  0.81942074  0.37981764  0.85048842     0.18090
N1330       N  0.76019386  0.39020744  0.86356216    -0.88630
H1331       H  0.85986013  0.44840880  0.95281173     0.35470
H1332       H  0.87471289  0.45683961  0.91663429     0.40560
H1333       H  0.76151810  0.36524924  0.86117853     0.40180
H1334       H  0.76309172  0.40043297  0.84072684     0.35070
C1335       C  0.71662902  0.38001006  0.91100054    -0.26660
C1336       C  0.71840579  0.41386628  0.91139054    -0.14730
C1337       C  0.68977140  0.43129669  0.90398211     0.35900
C1338       C  0.66197429  0.41480164  0.89589635    -0.26110
C1339       C  0.66097076  0.38130428  0.89575210    -0.15350
C1340       C  0.68903414  0.36369615  0.90221588     0.36980
N1341       N  0.68890482  0.32914553  0.90246089    -0.89600
H1342       H  0.73715377  0.36599708  0.91840664     0.18100
H1343       H  0.64022895  0.42843102  0.89210347     0.18090
N1344       N  0.68697801  0.46526411  0.90821675    -0.88630
H1345       H  0.71100751  0.31988604  0.90951469     0.35470
H1346       H  0.68544933  0.32180069  0.87881016     0.40560
H1347       H  0.66983594  0.46968194  0.92579117     0.40180
H1348       H  0.67891584  0.47557429  0.88668461     0.35070
C1349       C  0.77584726  0.58147208  0.12370084    -0.26660
C1350       C  0.77302465  0.59227773  0.09147535    -0.14730
C1351       C  0.79661957  0.61547970  0.08134317     0.35900
C1352       C  0.82520631  0.61767220  0.09844176    -0.26110
C1353       C  0.82950172  0.60213408  0.12786353    -0.15350
C1354       C  0.80361030  0.58576340  0.14175175     0.36980
N1355       N  0.80628071  0.57140071  0.17319934    -0.89600
H1356       H  0.75716393  0.56687885  0.13394215     0.18100
H1357       H  0.84402109  0.63268970  0.08905108     0.18090
N1358       N  0.79251501  0.63934875  0.05633024    -0.88630
H1359       H  0.78594589  0.55829363  0.17889446     0.35470
H1360       H  0.80726709  0.59008727  0.18971559     0.40560
H1361       H  0.77016807  0.64008934  0.04588984     0.40180
H1362       H  0.80961544  0.63571884  0.03855607     0.35070
C1363       C  0.69209090  0.56994079  0.10585871    -0.26660
C1364       C  0.71446408  0.59092492  0.09135496    -0.14730
C1365       C  0.70953215  0.62432890  0.09712772     0.35900
C1366       C  0.68062662  0.63531770  0.10942134    -0.26110
C1367       C  0.65547916  0.61429025  0.11476140    -0.15350
C1368       C  0.66166819  0.58106032  0.11487768     0.36980
N1369       N  0.63726250  0.55879065  0.12387058    -0.89600
H1370       H  0.69673963  0.54448625  0.10770850     0.18100
H1371       H  0.67669296  0.66104764  0.11069328     0.18090
N1372       N  0.73250668  0.64778475  0.08833341    -0.88630
H1373       H  0.64625190  0.53530746  0.12424695     0.35470
H1374       H  0.61989131  0.55941530  0.10596824     0.40560
H1375       H  0.73849746  0.66068237  0.10883132     0.40180
H1376       H  0.72215814  0.66374080  0.07173999     0.35070
C1377       C  0.80891767  0.42740982  0.06792300    -0.26660
C1378       C  0.78058972  0.41743140  0.08344364    -0.14730
C1379       C  0.78448821  0.39904122  0.11256104     0.35900
C1380       C  0.81519947  0.39110900  0.12383979    -0.26110
C1381       C  0.84273364  0.40244586  0.10882528    -0.15350
C1382       C  0.83926224  0.42027759  0.07993166     0.36980
N1383       N  0.86586984  0.43331209  0.06301116    -0.89600
H1384       H  0.80732123  0.44269926  0.04674790     0.18100
H1385       H  0.81755691  0.37812505  0.14640567     0.18090
N1386       N  0.75806620  0.39116941  0.13286526    -0.88630
H1387       H  0.88140140  0.41454411  0.05725108     0.35470
H1388       H  0.87741427  0.44967731  0.07774905     0.40560
H1389       H  0.75045368  0.41244264  0.14358794     0.40180
H1390       H  0.76486679  0.37569366  0.15161264     0.35070
C1391       C  0.71581354  0.38034981  0.08010959    -0.26660
C1392       C  0.71911785  0.41356844  0.08584564    -0.14730
C1393       C  0.69431567  0.42888700  0.10360193     0.35900
C1394       C  0.66545890  0.41247489  0.10915742    -0.26110
C1395       C  0.66168454  0.38031635  0.10038549    -0.15350
C1396       C  0.68794442  0.36384232  0.08705838     0.36980
N1397       N  0.68637187  0.33081285  0.07787836    -0.89600
H1398       H  0.73474896  0.36735434  0.06820788     0.18100
H1399       H  0.64570957  0.42490009  0.12027489     0.18090
N1400       N  0.69813263  0.46055116  0.11629389    -0.88630
H1401       H  0.66793662  0.32812409  0.06132946     0.35470
H1402       H  0.68181716  0.31680157  0.09828934     0.40560
H1403       H  0.71616493  0.45936481  0.13350431     0.40180
H1404       H  0.67760612  0.46811125  0.12820118     0.35070
C1405       C  0.72265853  0.48656854  0.05788934    -0.26660
C1406       C  0.74739105  0.46883305  0.07228429    -0.14730
C1407       C  0.77023116  0.48812783  0.08871544     0.35900
C1408       C  0.77059639  0.52196041  0.08429914    -0.26110
C1409       C  0.74490224  0.53974746  0.07083875    -0.15350
C1410       C  0.72060558  0.52014164  0.05695492     0.36980
N1411       N  0.69372094  0.53226083  0.03957078    -0.89600
H1412       H  0.70292850  0.47456901  0.04807767     0.18100
H1413       H  0.79140482  0.53403725  0.09277819     0.18090
N1414       N  0.79149293  0.47443552  0.11225542    -0.88630
H1415       H  0.70012697  0.53833446  0.01619914     0.35470
H1416       H  0.68136214  0.55004207  0.05157950     0.40560
H1417       H  0.77761976  0.46611224  0.13133645     0.40180
H1418       H  0.80661429  0.49169349  0.12179496     0.35070
C1419       C  0.71772765  0.42549326  0.98030017    -0.26660
C1420       C  0.74541096  0.41657996  0.96346816    -0.14730
C1421       C  0.76865099  0.39975170  0.98193252     0.35900
C1422       C  0.76852031  0.40281215  0.01575890    -0.26110
C1423       C  0.74489357  0.42087737  0.03222868    -0.15350
C1424       C  0.71645614  0.42541376  0.01387433     0.36980
N1425       N  0.68561996  0.42583213  0.02850340    -0.89600
H1426       H  0.69691030  0.43380404  0.96746386     0.18100
H1427       H  0.78650152  0.38966124  0.02892452     0.18090
N1428       N  0.79136423  0.37875962  0.96703167    -0.88630
H1429       H  0.67403703  0.40476104  0.02197848     0.35470
H1430       H  0.67231114  0.44486481  0.01869478     0.40560
H1431       H  0.77885019  0.35982180  0.95691085     0.40180
H1432       H  0.80678716  0.36857787  0.98404598     0.35070
C1433       C  0.81326472  0.56767164  0.92596159    -0.26660
C1434       C  0.78504117  0.58066522  0.91265578    -0.14730
C1435       C  0.78777353  0.59500599  0.88152556     0.35900
C1436       C  0.81782195  0.60193926  0.86885227    -0.26110
C1437       C  0.84583182  0.59189602  0.88431276    -0.15350
C1438       C  0.84316263  0.57364707  0.91297906     0.36980
N1439       N  0.87007708  0.55995450  0.92929230    -0.89600
H1440       H  0.81224845  0.55297429  0.94746840     0.18100
H1441       H  0.81901704  0.61345688  0.84543764     0.18090
N1442       N  0.76074528  0.60045556  0.86124133    -0.88630
H1443       H  0.88584337  0.57831364  0.93493136     0.35470
H1444       H  0.88113804  0.54328492  0.91433966     0.40560
H1445       H  0.76356214  0.58667263  0.84059743     0.40180
H1446       H  0.76034104  0.62463844  0.85419491     0.35070
C1447       C  0.69687466  0.57060345  0.90488667    -0.26660
C1448       C  0.72353513  0.58945425  0.91353994    -0.14730
C1449       C  0.71931942  0.62370321  0.91170890     0.35900
C1450       C  0.69006246  0.63693725  0.90247226    -0.26110
C1451       C  0.66338391  0.61782400  0.89725509    -0.15350
C1452       C  0.66737351  0.58420755  0.89653493     0.36980
N1453       N  0.64176773  0.56296609  0.88878890    -0.89600
H1454       H  0.69722813  0.54481297  0.90701872     0.18100
H1455       H  0.68733166  0.66283766  0.90326270     0.18090
N1456       N  0.74284766  0.64620434  0.92196395    -0.88630
H1457       H  0.64929465  0.54877125  0.86965021     0.35470
H1458       H  0.62219341  0.57578569  0.87995160     0.40560
H1459       H  0.76393351  0.64349913  0.90932634     0.40180
H1460       H  0.74703035  0.64392574  0.94651801     0.35070
C1461       C  0.72161830  0.58921658  0.98129006    -0.26660
C1462       C  0.75158482  0.58679195  0.96612170    -0.14730
C1463       C  0.77770478  0.59276468  0.98673904     0.35900
C1464       C  0.77419721  0.58562896  0.01948301    -0.26110
C1465       C  0.74450040  0.58850607  0.03532090    -0.15350
C1466       C  0.71795789  0.59501610  0.01422275     0.36980
N1467       N  0.68676796  0.60608874  0.02323925    -0.89600
H1468       H  0.69996511  0.58735280  0.96757368     0.18100
H1469       H  0.79559209  0.58000528  0.03276024     0.18090
N1470       N  0.80498875  0.61109282  0.97754809    -0.88630
H1471       H  0.66972767  0.58949083  0.01617029     0.35470
H1472       H  0.68344629  0.61044932  0.04714656     0.40560
H1473       H  0.80263838  0.62134276  0.95472211     0.40180
H1474       H  0.82548515  0.59693024  0.97960500     0.35070
C1475       C  0.75065361  0.51975438  0.90066624    -0.26660
C1476       C  0.75198583  0.53575904  0.93047668    -0.14730
C1477       C  0.75723435  0.51560510  0.95768030     0.35900
C1478       C  0.75513464  0.48250977  0.95548541    -0.26110
C1479       C  0.74943279  0.46627305  0.92663782    -0.15350
C1480       C  0.74946916  0.48596228  0.89817539     0.36980
N1481       N  0.74797229  0.47314582  0.86634501    -0.89600
H1482       H  0.74988448  0.53392735  0.87872290     0.18100
H1483       H  0.76089076  0.46970850  0.97738826     0.18090
N1484       N  0.76844161  0.52732651  0.98748159    -0.88630
H1485       H  0.72781552  0.48276487  0.85504467     0.35470
H1486       H  0.74473368  0.44854454  0.86682199     0.40560
H1487       H  0.79091260  0.51741979  0.99209030     0.40180
H1488       H  0.75321674  0.51922509  0.00535968     0.35070
C1489       C  0.40587879  0.91859148  0.83420864    -0.26660
C1490       C  0.39974552  0.88567944  0.83523454    -0.14730
C1491       C  0.39548418  0.86946770  0.80598665     0.35900
C1492       C  0.40031451  0.88595719  0.77675305    -0.26110
C1493       C  0.40998814  0.91845692  0.77519630    -0.15350
C1494       C  0.41139592  0.93502058  0.80514573     0.36980
N1495       N  0.41933210  0.96830001  0.80709243    -0.89600
H1496       H  0.40862901  0.93150388  0.85647990     0.18100
H1497       H  0.39889842  0.87210956  0.75504963     0.18090
N1498       N  0.38860167  0.83568814  0.80577846    -0.88630
H1499       H  0.43872796  0.97056527  0.82257611     0.35470
H1500       H  0.40018589  0.98042434  0.81753504     0.40560
H1501       H  0.40917561  0.82342175  0.81306637     0.40180
H1502       H  0.38386335  0.82801138  0.78246391     0.35070
C1503       C  0.37656098  0.91519367  0.71217805    -0.26660
C1504       C  0.41012414  0.91593517  0.71266852    -0.14730
C1505       C  0.42593913  0.90677109  0.68364280     0.35900
C1506       C  0.40833859  0.89835322  0.65642411    -0.26110
C1507       C  0.37526915  0.89899143  0.65631949    -0.15350
C1508       C  0.35915889  0.90612121  0.68506750     0.36980
N1509       N  0.32503781  0.90612631  0.68626285    -0.89600
H1510       H  0.36343649  0.92232903  0.73324889     0.18100
H1511       H  0.42091947  0.89286666  0.63444249     0.18090
N1512       N  0.45970610  0.90596844  0.68054536    -0.88630
H1513       H  0.31687580  0.91331650  0.70877786     0.35470
H1514       H  0.31771471  0.88238550  0.68347255     0.40560
H1515       H  0.46611497  0.91970687  0.66046771     0.40180
H1516       H  0.46636905  0.88237681  0.67520412     0.35070
C1517       C  0.40305423  0.07256802  0.80282710    -0.26660
C1518       C  0.41427671  0.09114938  0.77641554    -0.14730
C1519       C  0.41775880  0.12499379  0.78185304     0.35900
C1520       C  0.40889361  0.13818356  0.81124331    -0.26110
C1521       C  0.39917318  0.11923501  0.83720727    -0.15350
C1522       C  0.39577880  0.08593213  0.83282904     0.36980
N1523       N  0.38589054  0.06473109  0.85834034    -0.89600
H1524       H  0.40233462  0.04678268  0.80167196     0.18100
H1525       H  0.41239047  0.16372187  0.81459899     0.18090
N1526       N  0.43064451  0.14733202  0.75879886    -0.88630
H1527       H  0.36518423  0.05338472  0.85075870     0.35470
H1528       H  0.37952618  0.07751345  0.87877975     0.40560
H1529       H  0.43568147  0.13732818  0.73678132     0.40180
H1530       H  0.45213188  0.15571464  0.76793610     0.35070
C1531       C  0.36978977  0.11377146  0.68068011    -0.26660
C1532       C  0.38354604  0.10308875  0.65210505    -0.14730
C1533       C  0.41304875  0.08710362  0.65362870     0.35900
C1534       C  0.42675264  0.08025846  0.68360979    -0.26110
C1535       C  0.41252157  0.08893841  0.71314272    -0.15350
C1536       C  0.38342593  0.10689812  0.71085812     0.36980
N1537       N  0.36635177  0.11738454  0.73857611    -0.89600
H1538       H  0.34702670  0.12608088  0.67981825     0.18100
H1539       H  0.44869316  0.06697439  0.68336397     0.18090
N1540       N  0.42825694  0.07581225  0.62492607    -0.88630
H1541       H  0.34339539  0.10806225  0.73768576     0.35470
H1542       H  0.36431430  0.14241572  0.73735723     0.40560
H1543       H  0.41520674  0.05631227  0.61665326     0.40180
H1544       H  0.45100386  0.06685861  0.62995514     0.35070
C1545       C  0.44590272  0.01960688  0.72605761    -0.26660
C1546       C  0.42194143  0.03723748  0.74196867    -0.14730
C1547       C  0.39345949  0.01943525  0.74823204     0.35900
C1548       C  0.39428644  0.98534845  0.74747568    -0.26110
C1549       C  0.42145979  0.96818447  0.73716538    -0.15350
C1550       C  0.44438793  0.98701628  0.72075302     0.36980
N1551       N  0.46504507  0.97513275  0.69635139    -0.89600
H1552       H  0.46638975  0.03118880  0.71593158     0.18100
H1553       H  0.37375701  0.97232768  0.75593352     0.18090
N1554       N  0.36333345  0.03428658  0.75470105    -0.88630
H1555       H  0.48091834  0.95779168  0.70477078     0.35470
H1556       H  0.45102452  0.96708029  0.67751998     0.40560
H1557       H  0.36489384  0.05907238  0.75395691     0.40180
H1558       H  0.35617876  0.02753142  0.77780706     0.35070
C1559       C  0.61159046  0.90093542  0.79250772    -0.26660
C1560       C  0.57861549  0.90063992  0.78434273    -0.14730
C1561       C  0.55852943  0.88443961  0.80737992     0.35900
C1562       C  0.57069633  0.87324222  0.83635898    -0.26110
C1563       C  0.60237860  0.87586853  0.84449364    -0.15350
C1564       C  0.62362883  0.88892612  0.82203249     0.36980
N1565       N  0.65688264  0.89200328  0.82881844    -0.89600
H1566       H  0.62807895  0.91367434  0.77713817     0.18100
H1567       H  0.55447891  0.86179101  0.85311076     0.18090
N1568       N  0.52549917  0.87833882  0.80282538    -0.88630
H1569       H  0.66923329  0.87801341  0.81222651     0.35470
H1570       H  0.66238050  0.88268820  0.85154435     0.40560
H1571       H  0.51261435  0.88914028  0.82131641     0.40180
H1572       H  0.52176985  0.85353783  0.80396432     0.35070
C1573       C  0.60985038  0.88861217  0.71916216    -0.26660
C1574       C  0.57937317  0.90352913  0.72023680    -0.14730
C1575       C  0.56444576  0.90728981  0.68913034     0.35900
C1576       C  0.58158124  0.90238514  0.66068832    -0.26110
C1577       C  0.61348431  0.89353639  0.66082153    -0.15350
C1578       C  0.62732819  0.88512032  0.69062115     0.36980
N1579       N  0.65946098  0.87384921  0.69312827    -0.89600
H1580       H  0.62137358  0.87932808  0.74016030     0.18100
H1581       H  0.56976494  0.90711613  0.63797309     0.18090
N1582       N  0.53157399  0.91521852  0.68506840    -0.88630
H1583       H  0.67462570  0.89195258  0.68505554     0.35470
H1584       H  0.66216243  0.85364505  0.67868454     0.40560
H1585       H  0.52112755  0.89575436  0.67362463     0.40180
H1586       H  0.52934454  0.93485861  0.66932500     0.35070
C1587       C  0.51096118  0.89265989  0.74207663    -0.26660
C1588       C  0.52905281  0.91884101  0.75349837    -0.14730
C1589       C  0.51179763  0.94183658  0.77137446     0.35900
C1590       C  0.47936635  0.94513426  0.76686786    -0.26110
C1591       C  0.46157111  0.92294520  0.74921402    -0.15350
C1592       C  0.47730041  0.89315852  0.74332437     0.36980
N1593       N  0.46019367  0.86338347  0.74234920    -0.89600
H1594       H  0.52321310  0.87106407  0.73451349     0.18100
H1595       H  0.46844149  0.96598553  0.77710284     0.18090
N1596       N  0.52654645  0.96070280  0.79560788    -0.88630
H1597       H  0.47595755  0.84396432  0.74058122     0.35470
H1598       H  0.44566918  0.86248342  0.72224638     0.40560
H1599       H  0.51570593  0.95544421  0.81758438     0.40180
H1600       H  0.52216442  0.98483696  0.79024148     0.35070
C1601       C  0.58082748  0.08575865  0.84459319    -0.26660
C1602       C  0.59985617  0.11283341  0.84305815    -0.14730
C1603       C  0.61481934  0.12009209  0.81370452     0.35900
C1604       C  0.60799955  0.10180017  0.78638946    -0.26110
C1605       C  0.58380886  0.07801444  0.78592745    -0.15350
C1606       C  0.57334821  0.06790867  0.81745301     0.36980
N1607       N  0.55805311  0.03798123  0.82388105    -0.89600
H1608       H  0.57085261  0.07821533  0.86741758     0.18100
H1609       H  0.62187540  0.10737668  0.76542322     0.18090
N1610       N  0.63705173  0.14578347  0.81065568    -0.88630
H1611       H  0.53704060  0.04262345  0.83646319     0.35470
H1612       H  0.57262316  0.02435328  0.83922629     0.40560
H1613       H  0.65480917  0.14247846  0.82795034     0.40180
H1614       H  0.62529159  0.16751768  0.81481106     0.35070
C1615       C  0.60575051  0.11912929  0.68328420    -0.26660
C1616       C  0.62207014  0.09578047  0.66556735    -0.14730
C1617       C  0.62747620  0.06544184  0.67973511     0.35900
C1618       C  0.61343693  0.05757281  0.70871862    -0.26110
C1619       C  0.59124011  0.07808960  0.72389318    -0.15350
C1620       C  0.59131002  0.11088498  0.71301244     0.36980
N1621       N  0.57687135  0.13569819  0.73184674    -0.89600
H1622       H  0.60377737  0.14344979  0.67397116     0.18100
H1623       H  0.61954339  0.03413367  0.71830117     0.18090
N1624       N  0.64665291  0.04136957  0.66472208    -0.88630
H1625       H  0.56093417  0.14881050  0.71758508     0.35470
H1626       H  0.59469586  0.15174867  0.73823465     0.40560
H1627       H  0.66915942  0.05077290  0.66021898     0.40180
H1628       H  0.63585478  0.03534692  0.64311548     0.35070
C1629       C  0.59187837  0.00881115  0.77349950    -0.26660
C1630       C  0.57317808  0.02648808  0.75135141    -0.14730
C1631       C  0.55986018  0.00814150  0.72606953     0.35900
C1632       C  0.56267024  0.97475296  0.72614111    -0.26110
C1633       C  0.57546777  0.95631449  0.75174368    -0.15350
C1634       C  0.59043809  0.97501710  0.77626328     0.36980
N1635       N  0.60105121  0.96153823  0.80606475    -0.89600
H1636       H  0.60641049  0.02112221  0.79073549     0.18100
H1637       H  0.55084682  0.96347740  0.70693149     0.18090
N1638       N  0.54307483  0.02195736  0.69932843    -0.88630
H1639       H  0.58773954  0.97147078  0.82468145     0.35470
H1640       H  0.62483843  0.96769286  0.80941921     0.40560
H1641       H  0.55675963  0.03925155  0.68773376     0.40180
H1642       H  0.52134468  0.03115476  0.70683955     0.35070
C1643       C  0.51354352  0.05795069  0.77171387    -0.26660
C1644       C  0.53363469  0.07311663  0.74957597    -0.14730
C1645       C  0.51701274  0.09084466  0.72474654     0.35900
C1646       C  0.48366544  0.09588056  0.72648851    -0.26110
C1647       C  0.46442057  0.07959010  0.74902883    -0.15350
C1648       C  0.48079913  0.06196051  0.77316116     0.36980
N1649       N  0.46408160  0.04449286  0.79755342    -0.89600
H1650       H  0.52210618  0.03808116  0.78506292     0.18100
H1651       H  0.47293973  0.11027317  0.70766298     0.18090
N1652       N  0.53141787  0.09826432  0.69452047    -0.88630
H1653       H  0.47225158  0.05205780  0.81991435     0.35470
H1654       H  0.46940803  0.02006143  0.79542511     0.40560
H1655       H  0.52608843  0.12214866  0.68854006     0.40180
H1656       H  0.52058093  0.08430440  0.67697727     0.35070
loop_ 
_geom_bond_atom_site_label_1 
_geom_bond_atom_site_label_2 
_geom_bond_distance 
_geom_bond_site_symmetry_2 
_ccdc_geom_bond_type 
C1         C1605   1.608       .  S
C1         C1619   1.582       .  S
C1         C1630   1.584       .  S
C1         C1644   1.600       .  S
C2         C1560   1.599       .  S
C2         C1574   1.610       .  S
C2         C1588   1.564       .  S
C2         C1633   1.603       .  S
C3         C1518   1.572       .  S
C3         C1535   1.579       .  S
C3         C1546   1.590       .  S
C3         C1647   1.585       .  S
C4         C1493   1.577       .  S
C4         C1504   1.570       .  S
C4         C1549   1.575       .  S
C4         C1591   1.562       .  S
C5         C1434   1.563       .  S
C5         C1448   1.575       .  S
C5         C1462   1.585       .  S
C5         C1476   1.579       .  S
C6         C1378   1.583       .  S
C6         C1392   1.567       .  S
C6         C1406   1.605       .  S
C6         C1423   1.604       .  S
C7         C1350   1.593       .  S
C7         C1364   1.571       .  S
C7         C1409   1.607       .  S
C7         C1465   1.576       .  S
C8         C1322   1.576       .  S
C8         C1336   1.566       .  S
C8         C1420   1.581       .  S
C8         C1479   1.578       .  S
C9         C1266   1.563       .  S
C9         C1283   1.574       .  S
C9         C1294   1.579       .  S
C9         C1308   1.590       .  S
C10        C1224   1.564       .  S
C10        C1238   1.564       .  S
C10        C1255   1.597       .  S
C10        C1311   1.589       .  S
C11        C1182   1.577       .  S
C11        C1196   1.592       .  S
C11        C1210   1.607       .  S
C11        C1297   1.565       .  S
C12        C1157   1.566       .  S
C12        C1168   1.576       .  S
C12        C1213   1.587       .  S
C12        C1252   1.573       .  S
In13         O15   2.261       .  S
In13         O16   2.216       .  S
In13         O24   2.272       .  S
In13         O18   2.245       .  S
In13         O20   2.321       .  S
In13         O21   2.225       .  S
In13         O22   2.198       .  S
In13         O25   2.244       .  S
C14          O20   1.269       .  A
C14          O22   1.253       .  A
C14          C66   1.475   1_554  S
O15          C23   1.261       .  A
O16          C23   1.257       .  A
C17          O24   1.257       .  A
C17          O18   1.259       .  A
C17        C1143   1.477       .  S
C19          O21   1.259       .  A
C19          O25   1.267       .  A
C19          C32   1.459       .  S
C23          C45   1.454       .  S
In26         O28   2.265       .  S
In26         O29   2.214       .  S
In26         O37   2.247       .  S
In26         O31   2.285       .  S
In26         O33   2.332       .  S
In26         O34   2.230       .  S
In26         O35   2.228       .  S
In26         O38   2.252       .  S
C27          O33   1.267       .  A
C27          O35   1.254       .  A
C27          C53   1.486       .  S
O28          C36   1.262       .  A
O29          C36   1.256       .  A
C30          O37   1.254       .  A
C30          O31   1.260       .  A
C30        C1395   1.488       .  S
C32          O34   1.259       .  A
C32          O38   1.266       .  A
C36          C97   1.453   1_554  S
In39         O41   2.243       .  S
In39         O42   2.235       .  S
In39         O50   2.266       .  S
In39         O44   2.252       .  S
In39         O46   2.324       .  S
In39         O47   2.218       .  S
In39         O48   2.195       .  S
In39         O51   2.263       .  S
C40          O46   1.268       .  A
C40          O48   1.253       .  A
C40         C105   1.474   1_554  S
O41          C49   1.266       .  A
O42          C49   1.258       .  A
C43          O50   1.257       .  A
C43          O44   1.258       .  A
C43        C1129   1.475       .  S
C45          O47   1.257       .  A
C45          O51   1.262       .  A
C49          C62   1.459       .  S
In52         O54   2.260       .  S
In52         O55   2.219       .  S
In52         O63   2.244       .  S
In52         O57   2.279       .  S
In52         O59   2.332       .  S
In52         O60   2.205       .  S
In52         O61   2.229       .  S
In52         O64   2.269       .  S
C53          O59   1.268       .  A
C53          O61   1.254       .  A
O54          C62   1.268       .  A
O55          C62   1.257       .  A
C56          O63   1.251       .  A
C56          O57   1.263       .  A
C56        C1115   1.491       .  S
C58          O60   1.256       .  A
C58          O64   1.263       .  A
C58          C88   1.452   1_554  S
In65         O67   2.242       .  S
In65         O68   2.219       .  S
In65         O76   2.225       .  S
In65         O70   2.267       .  S
In65         O72   2.317       .  S
In65         O73   2.220       .  S
In65         O74   2.203       .  S
In65         O77   2.257       .  S
C66          O72   1.267       .  A
C66          O74   1.256       .  A
O67          C75   1.267       .  A
O68          C75   1.258       .  A
C69          O76   1.259       .  A
C69          O70   1.257       .  A
C69        C1602   1.485       .  S
C71          O73   1.256       .  A
C71          O77   1.260       .  A
C71         C114   1.452       .  S
C75         C101   1.456       .  S
In78         O80   2.269       .  S
In78         O81   2.209       .  S
In78         O89   2.254       .  S
In78         O83   2.253       .  S
In78         O85   2.326       .  S
In78         O86   2.237       .  S
In78         O87   2.198       .  S
In78         O90   2.250       .  S
C79          O85   1.267       .  A
C79          O87   1.251       .  A
C79          C92   1.473       .  S
O80          C88   1.262       .  A
O81          C88   1.256       .  A
C82          O89   1.258       .  A
C82          O83   1.258       .  A
C82        C1098   1.472       .  S
C84          O86   1.259       .  A
C84          O90   1.267       .  A
C84         C110   1.463       .  S
In91         O93   2.241       .  S
In91         O94   2.222       .  S
In91        O102   2.234       .  S
In91         O96   2.255       .  S
In91         O98   2.323       .  S
In91         O99   2.210       .  S
In91        O100   2.195       .  S
In91        O103   2.263       .  S
C92          O98   1.268       .  A
C92         O100   1.253       .  A
O93         C101   1.267       .  A
O94         C101   1.259       .  A
C95         O102   1.255       .  A
C95          O96   1.261       .  A
C95        C1339   1.480       .  S
C97          O99   1.257       .  A
C97         O103   1.262       .  A
In104       O106   2.256       .  S
In104       O107   2.218       .  S
In104       O115   2.248       .  S
In104       O109   2.263       .  S
In104       O111   2.326       .  S
In104       O112   2.232       .  S
In104       O113   2.197       .  S
In104       O116   2.259       .  S
C105        O111   1.268       .  A
C105        O113   1.253       .  A
O106        C114   1.261       .  A
O107        C114   1.257       .  A
C108        O115   1.258       .  A
C108        O109   1.258       .  A
C108       C1521   1.480       .  S
C110        O112   1.258       .  A
C110        O116   1.267       .  A
In117       O119   2.271       .  S
In117       O120   2.220       .  S
In117       O128   2.248       .  S
In117       O122   2.266       .  S
In117       O124   2.325       .  S
In117       O125   2.236       .  S
In117       O126   2.220       .  S
In117       O129   2.243       .  S
C118        O124   1.265       .  A
C118        O126   1.253       .  A
C118        C157   1.478       .  S
O119        C127   1.263       .  A
O120        C127   1.257       .  A
C121        O128   1.255       .  A
C121        O122   1.259       .  A
C121       C1451   1.484       .  S
C123        O125   1.260       .  A
C123        O129   1.265       .  A
C123        C188   1.459       .  S
C127        C149   1.459   1_556  S
In130       O132   2.261       .  S
In130       O133   2.201       .  S
In130       O141   2.247       .  S
In130       O135   2.250       .  S
In130       O137   2.320       .  S
In130       O138   2.234       .  S
In130       O139   2.204       .  S
In130       O142   2.248       .  S
C131        O137   1.267       .  A
C131        O139   1.253       .  A
C131        C144   1.474       .  S
O132        C140   1.260       .  A
O133        C140   1.255       .  A
C134        O141   1.258       .  A
C134        O135   1.257       .  A
C134       C1087   1.489       .  S
C136        O138   1.259       .  A
C136        O142   1.267       .  A
C136        C175   1.461       .  S
C140        C162   1.445   1_554  S
In143       O145   2.250       .  S
In143       O146   2.232       .  S
In143       O154   2.235       .  S
In143       O148   2.264       .  S
In143       O150   2.324       .  S
In143       O151   2.220       .  S
In143       O152   2.207       .  S
In143       O155   2.270       .  S
C144        O150   1.265       .  A
C144        O152   1.251       .  A
O145        C153   1.266       .  A
O146        C153   1.259       .  A
C147        O154   1.256       .  A
C147        O148   1.259       .  A
C147       C1367   1.477       .  S
C149        O151   1.258       .  A
C149        O155   1.263       .  A
C153        C205   1.460       .  S
In156       O158   2.259       .  S
In156       O159   2.218       .  S
In156       O167   2.237       .  S
In156       O161   2.274       .  S
In156       O163   2.322       .  S
In156       O164   2.197       .  S
In156       O165   2.214       .  S
In156       O168   2.259       .  S
C157        O163   1.268       .  A
C157        O165   1.253       .  A
O158        C166   1.268       .  A
O159        C166   1.257       .  A
C160        O167   1.254       .  A
C160        O161   1.260       .  A
C160       C1073   1.485       .  S
C162        O164   1.256       .  A
C162        O168   1.262       .  A
C166        C218   1.460       .  S
In169       O171   2.256       .  S
In169       O172   2.211       .  S
In169       O180   2.246       .  S
In169       O174   2.281       .  S
In169       O176   2.328       .  S
In169       O177   2.224       .  S
In169       O178   2.216       .  S
In169       O181   2.257       .  S
C170        O176   1.268       .  A
C170        O178   1.252       .  A
C170        C209   1.480   1_554  S
O171        C179   1.261       .  A
O172        C179   1.255       .  A
C173        O180   1.253       .  A
C173        O174   1.260       .  A
C173       C1056   1.490       .  S
C175        O177   1.258       .  A
C175        O181   1.269       .  A
C179        C201   1.446       .  S
In182       O184   2.269       .  S
In182       O185   2.225       .  S
In182       O193   2.261       .  S
In182       O187   2.239       .  S
In182       O189   2.314       .  S
In182       O190   2.222       .  S
In182       O191   2.191       .  S
In182       O194   2.251       .  S
C183        O189   1.267       .  A
C183        O191   1.253       .  A
C183        C196   1.469   1_556  S
O184        C192   1.262       .  A
O185        C192   1.256       .  A
C186        O193   1.257       .  A
C186        O187   1.259       .  A
C186       C1563   1.469       .  S
C188        O190   1.258       .  A
C188        O194   1.267       .  A
C192        C214   1.458       .  S
In195       O197   2.253       .  S
In195       O198   2.244       .  S
In195       O206   2.191       .  S
In195       O200   2.306       .  S
In195       O202   2.322       .  S
In195       O203   2.202       .  S
In195       O204   2.200       .  S
In195       O207   2.241       .  S
C196        O202   1.265       .  A
C196        O204   1.250       .  A
O197        C205   1.259       .  A
O198        C205   1.254       .  A
C199        O206   1.248       .  A
C199        O200   1.265       .  A
C199       C1042   1.474       .  S
C201        O203   1.262       .  A
C201        O207   1.266       .  A
In208       O210   2.242       .  S
In208       O211   2.243       .  S
In208       O219   2.258       .  S
In208       O213   2.264       .  S
In208       O215   2.326       .  S
In208       O216   2.226       .  S
In208       O217   2.220       .  S
In208       O220   2.267       .  S
C209        O215   1.265       .  A
C209        O217   1.255       .  A
O210        C218   1.264       .  A
O211        C218   1.259       .  A
C212        O219   1.254       .  A
C212        O213   1.258       .  A
C212       C1490   1.489       .  S
C214        O216   1.257       .  A
C214        O220   1.262       .  A
C221       C1000   1.575       .  S
C221       C1014   1.587       .  S
C221       C1028   1.575       .  S
C221       C1140   1.575       .  S
C222        C958   1.574       .  S
C222        C972   1.596       .  S
C222        C986   1.584       .  S
C222       C1059   1.579       .  S
C223        C944   1.573       .  S
C223        C989   1.597       .  S
C223       C1017   1.613       .  S
C223       C1045   1.601       .  S
C224        C933   1.582       .  S
C224        C975   1.574       .  S
C224       C1031   1.572       .  S
C224       C1126   1.588       .  S
In225       O227   2.243       .  S
In225       O228   2.212       .  S
In225       O236   2.220       .  S
In225       O230   2.252       .  S
In225       O232   2.315       .  S
In225       O233   2.214       .  S
In225       O234   2.192       .  S
In225       O237   2.239       .  S
C226        O232   1.269       .  A
C226        O234   1.255       .  A
C226        C239   1.472       .  S
O227        C235   1.261       .  A
O228        C235   1.256       .  A
C229        O236   1.258       .  A
C229        O230   1.260       .  A
C229       C1199   1.485       .  S
C231        O233   1.258       .  A
C231        O237   1.267       .  A
C231        C296   1.453       .  S
C235        C270   1.446   1_655  S
In238       O240   2.238       .  S
In238       O241   2.224       .  S
In238       O249   2.213       .  S
In238       O243   2.272       .  S
In238       O245   2.316       .  S
In238       O246   2.222       .  S
In238       O247   2.195       .  S
In238       O250   2.252       .  S
C239        O245   1.267       .  A
C239        O247   1.254       .  A
O240        C248   1.267       .  A
O241        C248   1.259       .  A
C242        O249   1.257       .  A
C242        O243   1.260       .  A
C242        C916   1.487       .  S
C244        O246   1.256       .  A
C244        O250   1.260       .  A
C244        C261   1.452   1_655  S
C248        C326   1.458       .  S
In251       O253   2.254       .  S
In251       O254   2.220       .  S
In251       O262   2.250       .  S
In251       O256   2.234       .  S
In251       O258   2.314       .  S
In251       O259   2.217       .  S
In251       O260   2.192       .  S
In251       O263   2.243       .  S
C252        O258   1.268       .  A
C252        O260   1.255       .  A
C252        C265   1.471       .  S
O253        C261   1.259       .  A
O254        C261   1.256       .  A
C255        O262   1.258       .  A
C255        O256   1.257       .  A
C255        C902   1.485       .  S
C257        O259   1.258       .  A
C257        O263   1.267       .  A
C257        C283   1.456       .  S
In264       O266   2.246       .  S
In264       O267   2.229       .  S
In264       O275   2.243       .  S
In264       O269   2.257       .  S
In264       O271   2.317       .  S
In264       O272   2.212       .  S
In264       O273   2.189       .  S
In264       O276   2.236       .  S
C265        O271   1.269       .  A
C265        O273   1.253       .  A
O266        C274   1.266       .  A
O267        C274   1.259       .  A
C268        O275   1.256       .  A
C268        O269   1.262       .  A
C268       C1280   1.489       .  S
C270        O272   1.259       .  A
C270        O276   1.260       .  A
C274        C313   1.461       .  S
In277       O279   2.255       .  S
In277       O280   2.218       .  S
In277       O288   2.255       .  S
In277       O282   2.248       .  S
In277       O284   2.328       .  S
In277       O285   2.224       .  S
In277       O286   2.205       .  S
In277       O289   2.243       .  S
C278        O284   1.268       .  A
C278        O286   1.255       .  A
C278        C317   1.479   1_455  S
O279        C287   1.261       .  A
O280        C287   1.256       .  A
C281        O288   1.258       .  A
C281        O282   1.260       .  A
C281        C888   1.490       .  S
C283        O285   1.258       .  A
C283        O289   1.266       .  A
C287        C309   1.452       .  S
In290       O292   2.244       .  S
In290       O293   2.214       .  S
In290       O301   2.235       .  S
In290       O295   2.233       .  S
In290       O297   2.317       .  S
In290       O298   2.216       .  S
In290       O299   2.191       .  S
In290       O302   2.239       .  S
C291        O297   1.268       .  A
C291        O299   1.254       .  A
C291        C304   1.472   1_655  S
O292        C300   1.260       .  A
O293        C300   1.257       .  A
C294        O301   1.259       .  A
C294        O295   1.258       .  A
C294       C1437   1.484       .  S
C296        O298   1.258       .  A
C296        O302   1.267       .  A
C300        C322   1.446       .  S
In303       O305   2.249       .  S
In303       O306   2.227       .  S
In303       O314   2.240       .  S
In303       O308   2.257       .  S
In303       O310   2.318       .  S
In303       O311   2.219       .  S
In303       O312   2.192       .  S
In303       O315   2.253       .  S
C304        O310   1.269       .  A
C304        O312   1.254       .  A
O305        C313   1.266       .  A
O306        C313   1.259       .  A
C307        O314   1.258       .  A
C307        O308   1.258       .  A
C307        C877   1.484       .  S
C309        O311   1.257       .  A
C309        O315   1.260       .  A
In316       O318   2.250       .  S
In316       O319   2.218       .  S
In316       O327   2.251       .  S
In316       O321   2.247       .  S
In316       O323   2.331       .  S
In316       O324   2.213       .  S
In316       O325   2.201       .  S
In316       O328   2.243       .  S
C317        O323   1.270       .  A
C317        O325   1.253       .  A
O318        C326   1.268       .  A
O319        C326   1.258       .  A
C320        O327   1.260       .  A
C320        O321   1.259       .  A
C320       C1325   1.491       .  S
C322        O324   1.257       .  A
C322        O328   1.260       .  A
C329        C835   1.574       .  S
C329        C849   1.585       .  S
C329        C863   1.591       .  S
C329       C1084   1.560       .  S
C330        C804   1.602       .  S
C330        C818   1.606       .  S
C330        C891   1.560       .  S
C330       C1101   1.580       .  S
C331        C821   1.610       .  S
C331        C860   1.621       .  S
C331        C874   1.559       .  S
C331       C1070   1.607       .  S
C332        C790   1.591       .  S
C332        C807   1.578       .  S
C332        C846   1.588       .  S
C332       C1112   1.604       .  S
In333       O335   2.252       .  S
In333       O336   2.210       .  S
In333       O344   2.255       .  S
In333       O338   2.242       .  S
In333       O340   2.313       .  S
In333       O341   2.237       .  S
In333       O342   2.200       .  S
In333       O345   2.259       .  S
C334        O340   1.267       .  A
C334        O342   1.254       .  A
C334        C373   1.472       .  S
O335        C343   1.259       .  A
O336        C343   1.257       .  A
C337        O344   1.258       .  A
C337        O338   1.256       .  A
C337       C1241   1.487       .  S
C339        O341   1.259       .  A
C339        O345   1.267       .  A
C339        C352   1.467       .  S
C343        C417   1.447   1_455  S
In346       O348   2.258       .  S
In346       O349   2.221       .  S
In346       O357   2.246       .  S
In346       O351   2.281       .  S
In346       O353   2.316       .  S
In346       O354   2.246       .  S
In346       O355   2.233       .  S
In346       O358   2.257       .  S
C347        O353   1.264       .  A
C347        O355   1.255       .  A
C347        C386   1.481   1_455  S
O348        C356   1.259       .  A
O349        C356   1.257       .  A
C350        O357   1.258       .  A
C350        O351   1.259       .  A
C350        C832   1.493       .  S
C352        O354   1.260       .  A
C352        O358   1.266       .  A
C356        C365   1.451       .  S
In359       O361   2.244       .  S
In359       O362   2.215       .  S
In359       O370   2.230       .  S
In359       O364   2.271       .  S
In359       O366   2.315       .  S
In359       O367   2.214       .  S
In359       O368   2.227       .  S
In359       O371   2.255       .  S
C360        O366   1.266       .  A
C360        O368   1.254       .  A
C360        C425   1.480   1_455  S
O361        C369   1.267       .  A
O362        C369   1.257       .  A
C363        O370   1.251       .  A
C363        O364   1.263       .  A
C363        C793   1.485       .  S
C365        O367   1.258       .  A
C365        O371   1.262       .  A
C369        C382   1.453       .  S
In372       O374   2.235       .  S
In372       O375   2.220       .  S
In372       O383   2.237       .  S
In372       O377   2.257       .  S
In372       O379   2.311       .  S
In372       O380   2.213       .  S
In372       O381   2.204       .  S
In372       O384   2.272       .  S
C373        O379   1.267       .  A
C373        O381   1.255       .  A
O374        C382   1.266       .  A
O375        C382   1.258       .  A
C376        O383   1.260       .  A
C376        O377   1.256       .  A
C376        C779   1.480       .  S
C378        O380   1.254       .  A
C378        O384   1.262       .  A
C378        C408   1.454   1_455  S
In385       O387   2.245       .  S
In385       O388   2.215       .  S
In385       O396   2.222       .  S
In385       O390   2.284       .  S
In385       O392   2.314       .  S
In385       O393   2.199       .  S
In385       O394   2.231       .  S
In385       O397   2.254       .  S
C386        O392   1.267       .  A
C386        O394   1.255       .  A
O387        C395   1.268       .  A
O388        C395   1.257       .  A
C389        O396   1.249       .  A
C389        O390   1.264       .  A
C389       C1353   1.482       .  S
C391        O393   1.256       .  A
C391        O397   1.262       .  A
C391        C434   1.445       .  S
C395        C421   1.453       .  S
In398       O400   2.267       .  S
In398       O401   2.211       .  S
In398       O409   2.244       .  S
In398       O403   2.271       .  S
In398       O405   2.331       .  S
In398       O406   2.233       .  S
In398       O407   2.213       .  S
In398       O410   2.259       .  S
C399        O405   1.268       .  A
C399        O407   1.254       .  A
C399        C412   1.481       .  S
O400        C408   1.262       .  A
O401        C408   1.257       .  A
C402        O409   1.254       .  A
C402        O403   1.259       .  A
C402        C765   1.482       .  S
C404        O406   1.258       .  A
C404        O410   1.267       .  A
C404        C430   1.464       .  S
In411       O413   2.241       .  S
In411       O414   2.222       .  S
In411       O422   2.242       .  S
In411       O416   2.271       .  S
In411       O418   2.329       .  S
In411       O419   2.204       .  S
In411       O420   2.213       .  S
In411       O423   2.259       .  S
C412        O418   1.268       .  A
C412        O420   1.254       .  A
O413        C421   1.266       .  A
O414        C421   1.257       .  A
C415        O422   1.255       .  A
C415        O416   1.260       .  A
C415       C1171   1.482       .  S
C417        O419   1.254       .  A
C417        O423   1.263       .  A
In424       O426   2.257       .  S
In424       O427   2.207       .  S
In424       O435   2.256       .  S
In424       O429   2.268       .  S
In424       O431   2.316       .  S
In424       O432   2.239       .  S
In424       O433   2.226       .  S
In424       O436   2.252       .  S
C425        O431   1.265       .  A
C425        O433   1.255       .  A
O426        C434   1.259       .  A
O427        C434   1.255       .  A
C428        O435   1.258       .  A
C428        O429   1.258       .  A
C428       C1381   1.496       .  S
C430        O432   1.259       .  A
C430        O436   1.267       .  A
In437       O439   2.263       .  S
In437       O440   2.208       .  S
In437       O448   2.246       .  S
In437       O442   2.255       .  S
In437       O444   2.307       .  S
In437       O445   2.228       .  S
In437       O446   2.221       .  S
In437       O449   2.233       .  S
C438        O444   1.265       .  A
C438        O446   1.255       .  A
C438        C477   1.476       .  S
O439        C447   1.260       .  A
O440        C447   1.255       .  A
C441        O448   1.255       .  A
C441        O442   1.259       .  A
C441       C1532   1.485       .  S
C443        O445   1.259       .  A
C443        O449   1.266       .  A
C443        C456   1.455       .  S
C447        C521   1.448   1_545  S
In450       O452   2.255       .  S
In450       O453   2.206       .  S
In450       O461   2.222       .  S
In450       O455   2.269       .  S
In450       O457   2.324       .  S
In450       O458   2.213       .  S
In450       O459   2.196       .  S
In450       O462   2.251       .  S
C451        O457   1.268       .  A
C451        O459   1.252       .  A
C451        C490   1.473   1_545  S
O452        C460   1.262       .  A
O453        C460   1.257       .  A
C454        O461   1.252       .  A
C454        O455   1.262       .  A
C454        C748   1.479       .  S
C456        O458   1.257       .  A
C456        O462   1.267       .  A
C460        C469   1.447       .  S
In463       O465   2.250       .  S
In463       O466   2.221       .  S
In463       O474   2.272       .  S
In463       O468   2.243       .  S
In463       O470   2.321       .  S
In463       O471   2.221       .  S
In463       O472   2.199       .  S
In463       O475   2.258       .  S
C464        O470   1.268       .  A
C464        O472   1.252       .  A
C464        C529   1.473   1_545  S
O465        C473   1.268       .  A
O466        C473   1.258       .  A
C467        O474   1.255       .  A
C467        O468   1.256       .  A
C467        C737   1.477       .  S
C469        O471   1.254       .  A
C469        O475   1.260       .  A
C473        C486   1.457       .  S
In476       O478   2.243       .  S
In476       O479   2.227       .  S
In476       O487   2.251       .  S
In476       O481   2.239       .  S
In476       O483   2.310       .  S
In476       O484   2.214       .  S
In476       O485   2.222       .  S
In476       O488   2.257       .  S
C477        O483   1.266       .  A
C477        O485   1.254       .  A
O478        C486   1.267       .  A
O479        C486   1.257       .  A
C480        O487   1.254       .  A
C480        O481   1.261       .  A
C480        C930   1.484       .  S
C482        O484   1.257       .  A
C482        O488   1.260       .  A
C482        C512   1.450   1_545  S
In489       O491   2.242       .  S
In489       O492   2.221       .  S
In489       O500   2.231       .  S
In489       O494   2.260       .  S
In489       O496   2.322       .  S
In489       O497   2.204       .  S
In489       O498   2.199       .  S
In489       O501   2.270       .  S
C490        O496   1.267       .  A
C490        O498   1.253       .  A
O491        C499   1.266       .  A
O492        C499   1.258       .  A
C493        O500   1.254       .  A
C493        O494   1.261       .  A
C493       C1269   1.479       .  S
C495        O497   1.256       .  A
C495        O501   1.262       .  A
C495        C538   1.452       .  S
C499        C525   1.454       .  S
In502       O504   2.258       .  S
In502       O505   2.214       .  S
In502       O513   2.238       .  S
In502       O507   2.271       .  S
In502       O509   2.310       .  S
In502       O510   2.229       .  S
In502       O511   2.223       .  S
In502       O514   2.245       .  S
C503        O509   1.265       .  A
C503        O511   1.254       .  A
C503        C516   1.476       .  S
O504        C512   1.261       .  A
O505        C512   1.256       .  A
C506        O513   1.254       .  A
C506        O507   1.261       .  A
C506        C961   1.484       .  S
C508        O510   1.259       .  A
C508        O514   1.267       .  A
C508        C534   1.459       .  S
In515       O517   2.242       .  S
In515       O518   2.222       .  S
In515       O526   2.231       .  S
In515       O520   2.260       .  S
In515       O522   2.311       .  S
In515       O523   2.206       .  S
In515       O524   2.221       .  S
In515       O527   2.259       .  S
C516        O522   1.265       .  A
C516        O524   1.254       .  A
O517        C525   1.267       .  A
O518        C525   1.258       .  A
C519        O526   1.253       .  A
C519        O520   1.261       .  A
C519       C1507   1.482       .  S
C521        O523   1.257       .  A
C521        O527   1.261       .  A
In528       O530   2.272       .  S
In528       O531   2.208       .  S
In528       O539   2.235       .  S
In528       O533   2.268       .  S
In528       O535   2.318       .  S
In528       O536   2.228       .  S
In528       O537   2.204       .  S
In528       O540   2.249       .  S
C529        O535   1.266       .  A
C529        O537   1.254       .  A
O530        C538   1.262       .  A
O531        C538   1.255       .  A
C532        O539   1.255       .  A
C532        O533   1.258       .  A
C532       C1227   1.478       .  S
C534        O536   1.259       .  A
C534        O540   1.266       .  A
In541       O543   2.259       .  S
In541       O544   2.219       .  S
In541       O552   2.271       .  S
In541       O546   2.256       .  S
In541       O548   2.327       .  S
In541       O549   2.232       .  S
In541       O550   2.216       .  S
In541       O553   2.252       .  S
C542        O548   1.267       .  A
C542        O550   1.254       .  A
C542        C581   1.480       .  S
O543        C551   1.261       .  A
O544        C551   1.256       .  A
C545        O552   1.255       .  A
C545        O546   1.258       .  A
C545       C1577   1.494       .  S
C547        O549   1.259       .  A
C547        O553   1.266       .  A
C547        C612   1.461       .  S
C551        C573   1.451   1_565  S
In554       O556   2.276       .  S
In554       O557   2.210       .  S
In554       O565   2.259       .  S
In554       O559   2.236       .  S
In554       O561   2.318       .  S
In554       O562   2.223       .  S
In554       O563   2.205       .  S
In554       O566   2.249       .  S
C555        O561   1.266       .  A
C555        O563   1.254       .  A
C555        C568   1.474       .  S
O556        C564   1.261       .  A
O557        C564   1.255       .  A
C558        O565   1.255       .  A
C558        O559   1.259       .  A
C558       C1003   1.484       .  S
C560        O562   1.258       .  A
C560        O566   1.267       .  A
C560        C599   1.458       .  S
C564        C586   1.453   1_545  S
In567       O569   2.243       .  S
In567       O570   2.228       .  S
In567       O578   2.268       .  S
In567       O572   2.259       .  S
In567       O574   2.322       .  S
In567       O575   2.219       .  S
In567       O576   2.200       .  S
In567       O579   2.257       .  S
C568        O574   1.269       .  A
C568        O576   1.252       .  A
O569        C577   1.265       .  A
O570        C577   1.259       .  A
C571        O578   1.256       .  A
C571        O572   1.258       .  A
C571       C1616   1.477       .  S
C573        O575   1.257       .  A
C573        O579   1.262       .  A
C577        C629   1.457       .  S
In580       O582   2.251       .  S
In580       O583   2.221       .  S
In580       O591   2.243       .  S
In580       O585   2.272       .  S
In580       O587   2.327       .  S
In580       O588   2.206       .  S
In580       O589   2.215       .  S
In580       O592   2.273       .  S
C581        O587   1.267       .  A
C581        O589   1.253       .  A
O582        C590   1.266       .  A
O583        C590   1.258       .  A
C584        O591   1.253       .  A
C584        O585   1.261       .  A
C584        C947   1.480       .  S
C586        O588   1.255       .  A
C586        O592   1.263       .  A
C590        C642   1.457       .  S
In593       O595   2.260       .  S
In593       O596   2.218       .  S
In593       O604   2.231       .  S
In593       O598   2.270       .  S
In593       O600   2.292       .  S
In593       O601   2.235       .  S
In593       O602   2.236       .  S
In593       O605   2.241       .  S
C594        O600   1.263       .  A
C594        O602   1.256       .  A
C594        C633   1.474   1_545  S
O595        C603   1.261       .  A
O596        C603   1.257       .  A
C597        O604   1.253       .  A
C597        O598   1.260       .  A
C597        C720   1.478       .  S
C599        O601   1.259       .  A
C599        O605   1.266       .  A
C603        C625   1.453       .  S
In606       O608   2.256       .  S
In606       O609   2.217       .  S
In606       O617   2.241       .  S
In606       O611   2.277       .  S
In606       O613   2.305       .  S
In606       O614   2.232       .  S
In606       O615   2.242       .  S
In606       O618   2.250       .  S
C607        O613   1.265       .  A
C607        O615   1.256       .  A
C607        C620   1.482   1_565  S
O608        C616   1.260       .  A
O609        C616   1.257       .  A
C610        O617   1.254       .  A
C610        O611   1.262       .  A
C610       C1185   1.487       .  S
C612        O614   1.258       .  A
C612        O618   1.267       .  A
C616        C638   1.451       .  S
In619       O621   2.247       .  S
In619       O622   2.223       .  S
In619       O630   2.231       .  S
In619       O624   2.286       .  S
In619       O626   2.303       .  S
In619       O627   2.217       .  S
In619       O628   2.242       .  S
In619       O631   2.258       .  S
C620        O626   1.264       .  A
C620        O628   1.257       .  A
O621        C629   1.266       .  A
O622        C629   1.258       .  A
C623        O630   1.252       .  A
C623        O624   1.263       .  A
C623        C709   1.487       .  S
C625        O627   1.257       .  A
C625        O631   1.261       .  A
In632       O634   2.237       .  S
In632       O635   2.234       .  S
In632       O643   2.238       .  S
In632       O637   2.269       .  S
In632       O639   2.292       .  S
In632       O640   2.218       .  S
In632       O641   2.236       .  S
In632       O644   2.258       .  S
C633        O639   1.263       .  A
C633        O641   1.256       .  A
O634        C642   1.266       .  A
O635        C642   1.260       .  A
C636        O643   1.254       .  A
C636        O637   1.260       .  A
C636       C1154   1.481       .  S
C638        O640   1.256       .  A
C638        O644   1.260       .  A
C645        C678   1.578       .  S
C645        C692   1.600       .  S
C645        C706   1.574       .  S
C645        C919   1.590       .  S
C646        C667   1.600       .  S
C646        C681   1.571       .  S
C646        C751   1.582       .  S
C646        C905   1.570       .  S
C647        C650   1.576       .  S
C647        C664   1.578       .  S
C647        C734   1.575       .  S
C647        C776   1.566       .  S
C648        C653   1.576       .  S
C648        C695   1.580       .  S
C648        C723   1.564       .  S
C648        C762   1.587       .  S
C649        C650   1.412       .  A
C649        C654   1.401   1_455  A
C649        H656   1.079       .  S
C650        C651   1.426       .  A
C651        C652   1.404   1_455  A
C651        N658   1.438       .  S
C652        C653   1.419       .  A
C652        H657   1.073       .  S
C653        C654   1.427       .  A
C654        N655   1.438       .  S
N655        H659   1.045       .  S
N655        H660   1.041       .  S
N658        H661   1.037       .  S
N658        H662   1.044       .  S
C663        C664   1.403       .  A
C663        C668   1.383       .  A
C663        H670   1.080       .  S
C664        C665   1.435       .  A
C665        C666   1.412       .  A
C665        N672   1.439       .  S
C666        C667   1.417       .  A
C666        H671   1.067       .  S
C667        C668   1.426       .  A
C668        N669   1.429       .  S
N669        H673   1.045   1_455  S
N669        H674   1.046       .  S
N672        H675   1.036       .  S
N672        H676   1.046       .  S
C677        C678   1.415       .  A
C677        C682   1.399   1_655  A
C677        H684   1.082       .  S
C678        C679   1.424       .  A
C679        C680   1.406   1_655  A
C679        N686   1.434       .  S
C680        C681   1.420       .  A
C680        H685   1.084       .  S
C681        C682   1.429       .  A
C682        N683   1.429       .  S
N683        H687   1.041       .  S
N683        H688   1.040       .  S
N686        H689   1.044       .  S
N686        H690   1.045       .  S
C691        C692   1.419       .  A
C691        C696   1.409       .  A
C691        H698   1.080       .  S
C692        C693   1.423       .  A
C693        C694   1.407       .  A
C693        N700   1.434       .  S
C694        C695   1.410       .  A
C694        H699   1.083       .  S
C695        C696   1.431       .  A
C696        N697   1.432       .  S
N697        H701   1.046       .  S
N697        H702   1.046       .  S
N700        H703   1.046       .  S
N700        H704   1.046       .  S
C705        C706   1.423       .  A
C705        C710   1.410       .  A
C705        H712   1.079       .  S
C706        C707   1.421       .  A
C707        C708   1.402       .  A
C707        N714   1.434       .  S
C708        C709   1.405       .  A
C708        H713   1.084       .  S
C709        C710   1.407       .  A
C710        N711   1.438       .  S
N711        H715   1.046       .  S
N711        H716   1.045       .  S
N714        H717   1.045       .  S
N714        H718   1.046       .  S
C719        C720   1.398       .  A
C719        C724   1.405       .  A
C719        H726   1.084       .  S
C720        C721   1.409       .  A
C721        C722   1.399       .  A
C721        N728   1.439       .  S
C722        C723   1.413       .  A
C722        H727   1.077       .  S
C723        C724   1.438       .  A
C724        N725   1.435       .  S
N725        H729   1.040       .  S
N725        H730   1.042       .  S
N728        H731   1.045       .  S
N728        H732   1.046       .  S
C733        C734   1.416       .  A
C733        C738   1.380       .  A
C733        H740   1.078       .  S
C734        C735   1.428       .  A
C735        C736   1.418       .  A
C735        N742   1.429       .  S
C736        C737   1.401       .  A
C736        H741   1.083       .  S
C737        C738   1.406       .  A
C738        N739   1.431       .  S
N739        H743   1.043       .  S
N739        H744   1.044       .  S
N742        H745   1.045       .  S
N742        H746   1.046       .  S
C747        C748   1.392       .  A
C747        C752   1.400       .  A
C747        H754   1.084       .  S
C748        C749   1.410       .  A
C749        C750   1.402       .  A
C749        N756   1.438       .  S
C750        C751   1.412       .  A
C750        H755   1.080       .  S
C751        C752   1.444       .  A
C752        N753   1.434       .  S
N753        H757   1.042       .  S
N753        H758   1.043       .  S
N756        H759   1.045       .  S
N756        H760   1.046       .  S
C761        C762   1.414       .  A
C761        C766   1.397       .  A
C761        H768   1.078       .  S
C762        C763   1.436       .  A
C763        C764   1.412       .  A
C763        N770   1.437       .  S
C764        C765   1.397       .  A
C764        H769   1.084       .  S
C765        C766   1.413       .  A
C766        N767   1.433       .  S
N767        H771   1.046       .  S
N767        H772   1.045       .  S
N770        H773   1.043       .  S
N770        H774   1.046       .  S
C775        C776   1.418       .  A
C775        C780   1.411       .  A
C775        H782   1.079       .  S
C776        C777   1.431       .  A
C777        C778   1.392       .  A
C777        N784   1.430       .  S
C778        C779   1.392       .  A
C778        H783   1.085       .  S
C779        C780   1.415       .  A
C780        N781   1.438       .  S
N781        H785   1.046       .  S
N781        H786   1.044       .  S
N784        H787   1.046       .  S
N784        H788   1.046       .  S
C789        C790   1.419       .  A
C789        C794   1.404       .  A
C789        H796   1.081       .  S
C790        C791   1.451       .  A
C791        C792   1.404       .  A
C791        N798   1.432       .  S
C792        C793   1.389       .  A
C792        H797   1.085       .  S
C793        C794   1.409       .  A
C794        N795   1.438       .  S
N795        H799   1.046       .  S
N795        H800   1.046       .  S
N798        H801   1.045       .  S
N798        H802   1.046       .  S
C803        C804   1.408       .  A
C803        C808   1.394   1_556  A
C803        H810   1.061       .  S
C804        C805   1.453       .  A
C805        C806   1.412   1_556  A
C805        N812   1.440       .  S
C806        C807   1.400       .  A
C806        H811   1.080       .  S
C807        C808   1.418       .  A
C808        N809   1.424       .  S
N809        H813   1.042       .  S
N809        H814   1.035       .  S
N812        H815   1.038       .  S
N812        H816   1.045       .  S
C817        C818   1.412       .  A
C817        C822   1.409       .  A
C817        H824   1.079       .  S
C818        C819   1.435       .  A
C819        C820   1.409       .  A
C819        N826   1.433       .  S
C820        C821   1.418       .  A
C820        H825   1.077       .  S
C821        C822   1.436       .  A
C822        N823   1.435       .  S
N823        H827   1.046       .  S
N823        H828   1.044       .  S
N826        H829   1.046       .  S
N826        H830   1.046       .  S
C831        C832   1.397       .  A
C831        C836   1.398       .  A
C831        H838   1.084       .  S
C832        C833   1.413       .  A
C833        C834   1.419       .  A
C833        N840   1.437       .  S
C834        C835   1.421       .  A
C834        H839   1.079       .  S
C835        C836   1.425       .  A
C836        N837   1.428       .  S
N837        H841   1.046       .  S
N837        H842   1.046       .  S
N840        H843   1.045       .  S
N840        H844   1.046       .  S
C845        C846   1.404       .  A
C845        C850   1.417       .  A
C845        H852   1.079       .  S
C846        C847   1.433       .  A
C847        C848   1.399       .  A
C847        N854   1.422       .  S
C848        C849   1.410       .  A
C848        H853   1.083       .  S
C849        C850   1.441       .  A
C850        N851   1.438       .  S
N851        H855   1.046       .  S
N851        H856   1.032       .  S
N854        H857   1.039       .  S
N854        H858   1.040       .  S
C859        C860   1.412       .  A
C859        C864   1.385   1_556  A
C859        H866   1.072       .  S
C860        C861   1.449       .  A
C861        C862   1.424   1_556  A
C861        N868   1.417       .  S
C862        C863   1.410       .  A
C862        H867   1.077       .  S
C863        C864   1.407       .  A
C864        N865   1.418       .  S
N865        H869   1.041       .  S
N865        H870   1.045       .  S
N868        H871   1.040       .  S
N868        H872   1.039       .  S
C873        C874   1.419       .  A
C873        C878   1.411       .  A
C873        H880   1.079       .  S
C874        C875   1.425       .  A
C875        C876   1.398       .  A
C875        N882   1.433       .  S
C876        C877   1.401       .  A
C876        H881   1.084       .  S
C877        C878   1.411       .  A
C878        N879   1.438       .  S
N879        H883   1.046       .  S
N879        H884   1.045       .  S
N882        H885   1.046       .  S
N882        H886   1.046       .  S
C887        C888   1.400       .  A
C887        C892   1.405       .  A
C887        H894   1.083       .  S
C888        C889   1.412       .  A
C889        C890   1.410       .  A
C889        N896   1.438       .  S
C890        C891   1.416       .  A
C890        H895   1.080       .  S
C891        C892   1.433       .  A
C892        N893   1.441       .  S
N893        H897   1.045       .  S
N893        H898   1.043       .  S
N896        H899   1.045       .  S
N896        H900   1.046       .  S
C901        C902   1.403       .  A
C901        C906   1.407       .  A
C901        H908   1.084       .  S
C902        C903   1.410       .  A
C903        C904   1.393       .  A
C903        N910   1.434       .  S
C904        C905   1.420       .  A
C904        H909   1.074       .  S
C905        C906   1.430       .  A
C906        N907   1.433       .  S
N907        H911   1.045       .  S
N907        H912   1.046       .  S
N910        H913   1.045       .  S
N910        H914   1.044       .  S
C915        C916   1.394       .  A
C915        C920   1.393       .  A
C915        H922   1.084       .  S
C916        C917   1.411       .  A
C917        C918   1.407       .  A
C917        N924   1.432       .  S
C918        C919   1.424       .  A
C918        H923   1.076       .  S
C919        C920   1.435       .  A
C920        N921   1.432       .  S
N921        H925   1.046       .  S
N921        H926   1.045       .  S
N924        H927   1.045       .  S
N924        H928   1.045       .  S
C929        C930   1.391       .  A
C929        C934   1.397       .  A
C929        H936   1.084       .  S
C930        C931   1.413       .  A
C931        C932   1.405       .  A
C931        N938   1.433       .  S
C932        C933   1.418       .  A
C932        H937   1.072       .  S
C933        C934   1.441       .  A
C934        N935   1.431       .  S
N935        H939   1.046       .  S
N935        H940   1.046       .  S
N938        H941   1.045       .  S
N938        H942   1.045       .  S
C943        C944   1.416       .  A
C943        C948   1.397       .  A
C943        H950   1.084       .  S
C944        C945   1.432       .  A
C945        C946   1.408       .  A
C945        N952   1.431       .  S
C946        C947   1.396       .  A
C946        H951   1.084       .  S
C947        C948   1.414       .  A
C948        N949   1.433       .  S
N949        H953   1.045       .  S
N949        H954   1.045       .  S
N952        H955   1.046       .  S
N952        H956   1.045       .  S
C957        C958   1.415       .  A
C957        C962   1.396       .  A
C957        H964   1.084       .  S
C958        C959   1.431       .  A
C959        C960   1.407       .  A
C959        N966   1.431       .  S
C960        C961   1.398       .  A
C960        H965   1.084       .  S
C961        C962   1.416       .  A
C962        N963   1.433       .  S
N963        H967   1.045       .  S
N963        H968   1.045       .  S
N966        H969   1.045       .  S
N966        H970   1.046       .  S
C971        C972   1.427       .  A
C971        C976   1.409   1_565  A
C971        H978   1.074       .  S
C972        C973   1.438       .  A
C973        C974   1.406   1_565  A
C973        N980   1.439       .  S
C974        C975   1.414       .  A
C974        H979   1.084       .  S
C975        C976   1.415       .  A
C976        N977   1.431       .  S
N977        H981   1.046       .  S
N977        H982   1.045       .  S
N980        H983   1.036       .  S
N980        H984   1.046       .  S
C985        C986   1.412       .  A
C985        C990   1.409       .  A
C985        H992   1.084       .  S
C986        C987   1.424       .  A
C987        C988   1.407       .  A
C987        N994   1.428       .  S
C988        C989   1.421       .  A
C988        H993   1.081       .  S
C989        C990   1.430       .  A
C990        N991   1.426       .  S
N991        H995   1.041       .  S
N991        H996   1.036       .  S
N994        H997   1.046       .  S
N994        H998   1.045       .  S
C999       C1000   1.417       .  A
C999       C1004   1.406       .  A
C999       H1006   1.077       .  S
C1000      C1001   1.434       .  A
C1001      C1002   1.394       .  A
C1001      N1008   1.433       .  S
C1002      C1003   1.394       .  A
C1002      H1007   1.084       .  S
C1003      C1004   1.414       .  A
C1004      N1005   1.432       .  S
N1005      H1009   1.044       .  S
N1005      H1010   1.045       .  S
N1008      H1011   1.046       .  S
N1008      H1012   1.045       .  S
C1013      C1014   1.414       .  A
C1013      C1018   1.415   1_545  A
C1013      H1020   1.077       .  S
C1014      C1015   1.428       .  A
C1015      C1016   1.396   1_545  A
C1015      N1022   1.433       .  S
C1016      C1017   1.413       .  A
C1016      H1021   1.062       .  S
C1017      C1018   1.443       .  A
C1018      N1019   1.433       .  S
N1019      H1023   1.046       .  S
N1019      H1024   1.045       .  S
N1022      H1025   1.041       .  S
N1022      H1026   1.044       .  S
C1027      C1028   1.408       .  A
C1027      C1032   1.371       .  A
C1027      H1034   1.071       .  S
C1028      C1029   1.443       .  A
C1029      C1030   1.413       .  A
C1029      N1036   1.438       .  S
C1030      C1031   1.414       .  A
C1030      H1035   1.084       .  S
C1031      C1032   1.411       .  A
C1032      N1033   1.429       .  S
N1033      H1037   1.033   1_545  S
N1033      H1038   1.038       .  S
N1036      H1039   1.039       .  S
N1036      H1040   1.045       .  S
C1041      C1042   1.395       .  A
C1041      C1046   1.397       .  A
C1041      H1048   1.085       .  S
C1042      C1043   1.407       .  A
C1043      C1044   1.406       .  A
C1043      N1050   1.438       .  S
C1044      C1045   1.427       .  A
C1044      H1049   1.074       .  S
C1045      C1046   1.442       .  A
C1046      N1047   1.440       .  S
N1047      H1051   1.045       .  S
N1047      H1052   1.046       .  S
N1050      H1053   1.042       .  S
N1050      H1054   1.046       .  S
C1055      C1056   1.404       .  A
C1055      C1060   1.405       .  A
C1055      H1062   1.084       .  S
C1056      C1057   1.410       .  A
C1057      C1058   1.403       .  A
C1057      N1064   1.432       .  S
C1058      C1059   1.421       .  A
C1058      H1063   1.077       .  S
C1059      C1060   1.426       .  A
C1060      N1061   1.434       .  S
N1061      H1065   1.045       .  S
N1061      H1066   1.045       .  S
N1064      H1067   1.045       .  S
N1064      H1068   1.044       .  S
C1069      C1070   1.428       .  A
C1069      C1074   1.408       .  A
C1069      H1076   1.076       .  S
C1070      C1071   1.445       .  A
C1071      C1072   1.405       .  A
C1071      N1078   1.442       .  S
C1072      C1073   1.399       .  A
C1072      H1077   1.084       .  S
C1073      C1074   1.400       .  A
C1074      N1075   1.438       .  S
N1075      H1079   1.046       .  S
N1075      H1080   1.045       .  S
N1078      H1081   1.030       .  S
N1078      H1082   1.045       .  S
C1083      C1084   1.415       .  A
C1083      C1088   1.397       .  A
C1083      H1090   1.078       .  S
C1084      C1085   1.432       .  A
C1085      C1086   1.408       .  A
C1085      N1092   1.438       .  S
C1086      C1087   1.403       .  A
C1086      H1091   1.083       .  S
C1087      C1088   1.413       .  A
C1088      N1089   1.433       .  S
N1089      H1093   1.045       .  S
N1089      H1094   1.045       .  S
N1092      H1095   1.041       .  S
N1092      H1096   1.046       .  S
C1097      C1098   1.399       .  A
C1097      C1102   1.413       .  A
C1097      H1104   1.083       .  S
C1098      C1099   1.400       .  A
C1099      C1100   1.393       .  A
C1099      N1106   1.441       .  S
C1100      C1101   1.416       .  A
C1100      H1105   1.067       .  S
C1101      C1102   1.438       .  A
C1102      N1103   1.434       .  S
N1103      H1107   1.044       .  S
N1103      H1108   1.043       .  S
N1106      H1109   1.045       .  S
N1106      H1110   1.045       .  S
C1111      C1112   1.420       .  A
C1111      C1116   1.408       .  A
C1111      H1118   1.081       .  S
C1112      C1113   1.454       .  A
C1113      C1114   1.407       .  A
C1113      N1120   1.431       .  S
C1114      C1115   1.389       .  A
C1114      H1119   1.085       .  S
C1115      C1116   1.409       .  A
C1116      N1117   1.438       .  S
N1117      H1121   1.046       .  S
N1117      H1122   1.046       .  S
N1120      H1123   1.046       .  S
N1120      H1124   1.046       .  S
C1125      C1126   1.416       .  A
C1125      C1130   1.384       .  A
C1125      H1132   1.068       .  S
C1126      C1127   1.440       .  A
C1127      C1128   1.418       .  A
C1127      N1134   1.434       .  S
C1128      C1129   1.397       .  A
C1128      H1133   1.083       .  S
C1129      C1130   1.402       .  A
C1130      N1131   1.432       .  S
N1131      H1135   1.045       .  S
N1131      H1136   1.043       .  S
N1134      H1137   1.046       .  S
N1134      H1138   1.046       .  S
C1139      C1140   1.417       .  A
C1139      C1144   1.387       .  A
C1139      H1146   1.073       .  S
C1140      C1141   1.432       .  A
C1141      C1142   1.421       .  A
C1141      N1148   1.432       .  S
C1142      C1143   1.402       .  A
C1142      H1147   1.083       .  S
C1143      C1144   1.397       .  A
C1144      N1145   1.433       .  S
N1145      H1149   1.046       .  S
N1145      H1150   1.045       .  S
N1148      H1151   1.045       .  S
N1148      H1152   1.046       .  S
C1153      C1154   1.399       .  A
C1153      C1158   1.407       .  A
C1153      H1160   1.084       .  S
C1154      C1155   1.415       .  A
C1155      C1156   1.395       .  A
C1155      N1162   1.433       .  S
C1156      C1157   1.412       .  A
C1156      H1161   1.084       .  S
C1157      C1158   1.429       .  A
C1158      N1159   1.433       .  S
N1159      H1163   1.045       .  S
N1159      H1164   1.045       .  S
N1162      H1165   1.045       .  S
N1162      H1166   1.045       .  S
C1167      C1168   1.422       .  A
C1167      C1172   1.410       .  A
C1167      H1174   1.078       .  S
C1168      C1169   1.422       .  A
C1169      C1170   1.403       .  A
C1169      N1176   1.432       .  S
C1170      C1171   1.402       .  A
C1170      H1175   1.084       .  S
C1171      C1172   1.405       .  A
C1172      N1173   1.438       .  S
N1173      H1177   1.046       .  S
N1173      H1178   1.045       .  S
N1176      H1179   1.045       .  S
N1176      H1180   1.046       .  S
C1181      C1182   1.426       .  A
C1181      C1186   1.408       .  A
C1181      H1188   1.078       .  S
C1182      C1183   1.438       .  A
C1183      C1184   1.403       .  A
C1183      N1190   1.442       .  S
C1184      C1185   1.402       .  A
C1184      H1189   1.084       .  S
C1185      C1186   1.403       .  A
C1186      N1187   1.438       .  S
N1187      H1191   1.046       .  S
N1187      H1192   1.045       .  S
N1190      H1193   1.039       .  S
N1190      H1194   1.046       .  S
C1195      C1196   1.422       .  A
C1195      C1200   1.402       .  A
C1195      H1202   1.075       .  S
C1196      C1197   1.439       .  A
C1197      C1198   1.399       .  A
C1197      N1204   1.440       .  S
C1198      C1199   1.399       .  A
C1198      H1203   1.084       .  S
C1199      C1200   1.410       .  A
C1200      N1201   1.433       .  S
N1201      H1205   1.045       .  S
N1201      H1206   1.045       .  S
N1204      H1207   1.046       .  S
N1204      H1208   1.046       .  S
C1209      C1210   1.410       .  A
C1209      C1214   1.401       .  A
C1209      H1216   1.058       .  S
C1210      C1211   1.437       .  A
C1211      C1212   1.411       .  A
C1211      N1218   1.433       .  S
C1212      C1213   1.418       .  A
C1212      H1217   1.078       .  S
C1213      C1214   1.428       .  A
C1214      N1215   1.441       .  S
N1215      H1219   1.046       .  S
N1215      H1220   1.035       .  S
N1218      H1221   1.046       .  S
N1218      H1222   1.045       .  S
C1223      C1224   1.420       .  A
C1223      C1228   1.404       .  A
C1223      H1230   1.080       .  S
C1224      C1225   1.422       .  A
C1225      C1226   1.397       .  A
C1225      N1232   1.433       .  S
C1226      C1227   1.399       .  A
C1226      H1231   1.084       .  S
C1227      C1228   1.409       .  A
C1228      N1229   1.432       .  S
N1229      H1233   1.045       .  S
N1229      H1234   1.044       .  S
N1232      H1235   1.046       .  S
N1232      H1236   1.046       .  S
C1237      C1238   1.418       .  A
C1237      C1242   1.399       .  A
C1237      H1244   1.078       .  S
C1238      C1239   1.425       .  A
C1239      C1240   1.403       .  A
C1239      N1246   1.435       .  S
C1240      C1241   1.405       .  A
C1240      H1245   1.084       .  S
C1241      C1242   1.413       .  A
C1242      N1243   1.433       .  S
N1243      H1247   1.044       .  S
N1243      H1248   1.045       .  S
N1246      H1249   1.046       .  S
N1246      H1250   1.045       .  S
C1251      C1252   1.409       .  A
C1251      C1256   1.403   1_655  A
C1251      H1258   1.075       .  S
C1252      C1253   1.417       .  A
C1253      C1254   1.407   1_655  A
C1253      N1260   1.430       .  S
C1254      C1255   1.416       .  A
C1254      H1259   1.069       .  S
C1255      C1256   1.437       .  A
C1256      N1257   1.434       .  S
N1257      H1261   1.043       .  S
N1257      H1262   1.044       .  S
N1260      H1263   1.032       .  S
N1260      H1264   1.045       .  S
C1265      C1266   1.414       .  A
C1265      C1270   1.400       .  A
C1265      H1272   1.084       .  S
C1266      C1267   1.434       .  A
C1267      C1268   1.405       .  A
C1267      N1274   1.430       .  S
C1268      C1269   1.396       .  A
C1268      H1273   1.084       .  S
C1269      C1270   1.411       .  A
C1270      N1271   1.439       .  S
N1271      H1275   1.046       .  S
N1271      H1276   1.045       .  S
N1274      H1277   1.046       .  S
N1274      H1278   1.046       .  S
C1279      C1280   1.399       .  A
C1279      C1284   1.406       .  A
C1279      H1286   1.084       .  S
C1280      C1281   1.409       .  A
C1281      C1282   1.403       .  A
C1281      N1288   1.432       .  S
C1282      C1283   1.418       .  A
C1282      H1287   1.084       .  S
C1283      C1284   1.434       .  A
C1284      N1285   1.431       .  S
N1285      H1289   1.046       .  S
N1285      H1290   1.046       .  S
N1288      H1291   1.046       .  S
N1288      H1292   1.046       .  S
C1293      C1294   1.411       .  A
C1293      C1298   1.383   1_455  A
C1293      H1300   1.065       .  S
C1294      C1295   1.442       .  A
C1295      C1296   1.413   1_455  A
C1295      N1302   1.431       .  S
C1296      C1297   1.414       .  A
C1296      H1301   1.083       .  S
C1297      C1298   1.398       .  A
C1298      N1299   1.430       .  S
N1299      H1303   1.046       .  S
N1299      H1304   1.044       .  S
N1302      H1305   1.043       .  S
N1302      H1306   1.042       .  S
C1307      C1308   1.411       .  A
C1307      C1312   1.409       .  A
C1307      H1314   1.080       .  S
C1308      C1309   1.427       .  A
C1309      C1310   1.404       .  A
C1309      N1316   1.432       .  S
C1310      C1311   1.412       .  A
C1310      H1315   1.081       .  S
C1311      C1312   1.433       .  A
C1312      N1313   1.433       .  S
N1313      H1317   1.046       .  S
N1313      H1318   1.046       .  S
N1316      H1319   1.045       .  S
N1316      H1320   1.045       .  S
C1321      C1322   1.419       .  A
C1321      C1326   1.405       .  A
C1321      H1328   1.081       .  S
C1322      C1323   1.432       .  A
C1323      C1324   1.407       .  A
C1323      N1330   1.431       .  S
C1324      C1325   1.401       .  A
C1324      H1329   1.084       .  S
C1325      C1326   1.411       .  A
C1326      N1327   1.438       .  S
N1327      H1331   1.046       .  S
N1327      H1332   1.046       .  S
N1330      H1333   1.046       .  S
N1330      H1334   1.046       .  S
C1335      C1336   1.413       .  A
C1335      C1340   1.402       .  A
C1335      H1342   1.082       .  S
C1336      C1337   1.434       .  A
C1337      C1338   1.405       .  A
C1337      N1344   1.431       .  S
C1338      C1339   1.396       .  A
C1338      H1343   1.084       .  S
C1339      C1340   1.410       .  A
C1340      N1341   1.439       .  S
N1341      H1345   1.046       .  S
N1341      H1346   1.045       .  S
N1344      H1347   1.046       .  S
N1344      H1348   1.046       .  S
C1349      C1350   1.416       .  A
C1349      C1354   1.404       .  A
C1349      H1356   1.083       .  S
C1350      C1351   1.452       .  A
C1351      C1352   1.403       .  A
C1351      N1358   1.442       .  S
C1352      C1353   1.391       .  A
C1352      H1357   1.084       .  S
C1353      C1354   1.412       .  A
C1354      N1355   1.438       .  S
N1355      H1359   1.046       .  S
N1355      H1360   1.045       .  S
N1358      H1361   1.037       .  S
N1358      H1362   1.045       .  S
C1363      C1364   1.421       .  A
C1363      C1368   1.412       .  A
C1363      H1370   1.078       .  S
C1364      C1365   1.428       .  A
C1365      C1366   1.397       .  A
C1365      N1372   1.426       .  S
C1366      C1367   1.396       .  A
C1366      H1371   1.085       .  S
C1367      C1368   1.406       .  A
C1368      N1369   1.437       .  S
N1369      H1373   1.046       .  S
N1369      H1374   1.044       .  S
N1372      H1375   1.046       .  S
N1372      H1376   1.046       .  S
C1377      C1378   1.421       .  A
C1377      C1382   1.401       .  A
C1377      H1384   1.084       .  S
C1378      C1379   1.436       .  A
C1379      C1380   1.412       .  A
C1379      N1386   1.437       .  S
C1380      C1381   1.401       .  A
C1380      H1385   1.084       .  S
C1381      C1382   1.414       .  A
C1382      N1383   1.432       .  S
N1383      H1387   1.045       .  S
N1383      H1388   1.045       .  S
N1386      H1389   1.045       .  S
N1386      H1390   1.046       .  S
C1391      C1392   1.414       .  A
C1391      C1396   1.394       .  A
C1391      H1398   1.084       .  S
C1392      C1393   1.431       .  A
C1393      C1394   1.417       .  A
C1393      N1400   1.436       .  S
C1394      C1395   1.402       .  A
C1394      H1399   1.083       .  S
C1395      C1396   1.414       .  A
C1396      N1397   1.434       .  S
N1397      H1401   1.046       .  S
N1397      H1402   1.045       .  S
N1400      H1403   1.045       .  S
N1400      H1404   1.046       .  S
C1405      C1406   1.403       .  A
C1405      C1410   1.400       .  A
C1405      H1412   1.057       .  S
C1406      C1407   1.436       .  A
C1407      C1408   1.419       .  A
C1407      N1414   1.438       .  S
C1408      C1409   1.418       .  A
C1408      H1413   1.075       .  S
C1409      C1410   1.439       .  A
C1410      N1411   1.429       .  S
N1411      H1415   1.040       .  S
N1411      H1416   1.035       .  S
N1414      H1417   1.045       .  S
N1414      H1418   1.046       .  S
C1419      C1420   1.411       .  A
C1419      C1424   1.400   1_556  A
C1419      H1426   1.079       .  S
C1420      C1421   1.420       .  A
C1421      C1422   1.417   1_556  A
C1421      N1428   1.437       .  S
C1422      C1423   1.424       .  A
C1422      H1427   1.077       .  S
C1423      C1424   1.431       .  A
C1424      N1425   1.436       .  S
N1425      H1429   1.046       .  S
N1425      H1430   1.046       .  S
N1428      H1431   1.045       .  S
N1428      H1432   1.045       .  S
C1433      C1434   1.413       .  A
C1433      C1438   1.395       .  A
C1433      H1440   1.081       .  S
C1434      C1435   1.427       .  A
C1435      C1436   1.403       .  A
C1435      N1442   1.433       .  S
C1436      C1437   1.403       .  A
C1436      H1441   1.084       .  S
C1437      C1438   1.414       .  A
C1438      N1439   1.433       .  S
N1439      H1443   1.045       .  S
N1439      H1444   1.045       .  S
N1442      H1445   1.046       .  S
N1442      H1446   1.046       .  S
C1447      C1448   1.424       .  A
C1447      C1452   1.404       .  A
C1447      H1454   1.077       .  S
C1448      C1449   1.437       .  A
C1449      C1450   1.398       .  A
C1449      N1456   1.437       .  S
C1450      C1451   1.401       .  A
C1450      H1455   1.084       .  S
C1451      C1452   1.409       .  A
C1452      N1453   1.439       .  S
N1453      H1457   1.046       .  S
N1453      H1458   1.043       .  S
N1456      H1459   1.039       .  S
N1456      H1460   1.041       .  S
C1461      C1462   1.416       .  A
C1461      C1466   1.404   1_556  A
C1461      H1468   1.080       .  S
C1462      C1463   1.421       .  A
C1463      C1464   1.401   1_556  A
C1463      N1470   1.435       .  S
C1464      C1465   1.420       .  A
C1464      H1469   1.080       .  S
C1465      C1466   1.444       .  A
C1466      N1467   1.441       .  S
N1467      H1471   1.045       .  S
N1467      H1472   1.024       .  S
N1470      H1473   1.043       .  S
N1470      H1474   1.045       .  S
C1475      C1476   1.417       .  A
C1475      C1480   1.413       .  A
C1475      H1482   1.083       .  S
C1476      C1477   1.419       .  A
C1477      C1478   1.386       .  A
C1477      N1484   1.421       .  S
C1478      C1479   1.407       .  A
C1478      H1483   1.078       .  S
C1479      C1480   1.434       .  A
C1480      N1481   1.437       .  S
N1481      H1485   1.045       .  S
N1481      H1486   1.034       .  S
N1484      H1487   1.046       .  S
N1484      H1488   1.039   1_556  S
C1489      C1490   1.397       .  A
C1489      C1494   1.405       .  A
C1489      H1496   1.084       .  S
C1490      C1491   1.412       .  A
C1491      C1492   1.408       .  A
C1491      N1498   1.438       .  S
C1492      C1493   1.417       .  A
C1492      H1497   1.080       .  S
C1493      C1494   1.434       .  A
C1494      N1495   1.431       .  S
N1495      H1499   1.046       .  S
N1495      H1500   1.046       .  S
N1498      H1501   1.046       .  S
N1498      H1502   1.046       .  S
C1503      C1504   1.415       .  A
C1503      C1508   1.403       .  A
C1503      H1510   1.081       .  S
C1504      C1505   1.435       .  A
C1505      C1506   1.404       .  A
C1505      N1512   1.429       .  S
C1506      C1507   1.393       .  A
C1506      H1511   1.084       .  S
C1507      C1508   1.411       .  A
C1508      N1509   1.438       .  S
N1509      H1513   1.046       .  S
N1509      H1514   1.046       .  S
N1512      H1515   1.045       .  S
N1512      H1516   1.046       .  S
C1517      C1518   1.422       .  A
C1517      C1522   1.407       .  A
C1517      H1524   1.076       .  S
C1518      C1519   1.438       .  A
C1519      C1520   1.398       .  A
C1519      N1526   1.440       .  S
C1520      C1521   1.396       .  A
C1520      H1525   1.085       .  S
C1521      C1522   1.409       .  A
C1522      N1523   1.439       .  S
N1523      H1527   1.046       .  S
N1523      H1528   1.043       .  S
N1526      H1529   1.033       .  S
N1526      H1530   1.046       .  S
C1531      C1532   1.400       .  A
C1531      C1536   1.408       .  A
C1531      H1538   1.084       .  S
C1532      C1533   1.406       .  A
C1533      C1534   1.401       .  A
C1533      N1540   1.439       .  S
C1534      C1535   1.419       .  A
C1534      H1539   1.073       .  S
C1535      C1536   1.433       .  A
C1536      N1537   1.432       .  S
N1537      H1541   1.046       .  S
N1537      H1542   1.046       .  S
N1540      H1543   1.046       .  S
N1540      H1544   1.046       .  S
C1545      C1546   1.413       .  A
C1545      C1550   1.379   1_545  A
C1545      H1552   1.076       .  S
C1546      C1547   1.438       .  A
C1547      C1548   1.420   1_545  A
C1547      N1554   1.434       .  S
C1548      C1549   1.414       .  A
C1548      H1553   1.082       .  S
C1549      C1550   1.420       .  A
C1550      N1551   1.429       .  S
N1551      H1555   1.038       .  S
N1551      H1556   1.042       .  S
N1554      H1557   1.035       .  S
N1554      H1558   1.046       .  S
C1559      C1560   1.430       .  A
C1559      C1564   1.415       .  A
C1559      H1566   1.083       .  S
C1560      C1561   1.445       .  A
C1561      C1562   1.386       .  A
C1561      N1568   1.429       .  S
C1562      C1563   1.382       .  A
C1562      H1567   1.086       .  S
C1563      C1564   1.404       .  A
C1564      N1565   1.436       .  S
N1565      H1569   1.045       .  S
N1565      H1570   1.044       .  S
N1568      H1571   1.047       .  S
N1568      H1572   1.046       .  S
C1573      C1574   1.423       .  A
C1573      C1578   1.408       .  A
C1573      H1580   1.067       .  S
C1574      C1575   1.447       .  A
C1575      C1576   1.404       .  A
C1575      N1582   1.431       .  S
C1576      C1577   1.391       .  A
C1576      H1581   1.084       .  S
C1577      C1578   1.411       .  A
C1578      N1579   1.433       .  S
N1579      H1583   1.045       .  S
N1579      H1584   1.045       .  S
N1582      H1585   1.045       .  S
N1582      H1586   1.046       .  S
C1587      C1588   1.421       .  A
C1587      C1592   1.419       .  A
C1587      H1594   1.083       .  S
C1588      C1589   1.416       .  A
C1589      C1590   1.385       .  A
C1589      N1596   1.431       .  S
C1590      C1591   1.408       .  A
C1590      H1595   1.072       .  S
C1591      C1592   1.425       .  A
C1592      N1593   1.440       .  S
N1593      H1597   1.045       .  S
N1593      H1598   1.038       .  S
N1596      H1599   1.046       .  S
N1596      H1600   1.042       .  S
C1601      C1602   1.390       .  A
C1601      C1606   1.397       .  A
C1601      H1608   1.085       .  S
C1602      C1603   1.408       .  A
C1603      C1604   1.407       .  A
C1603      N1610   1.432       .  S
C1604      C1605   1.427       .  A
C1604      H1609   1.076       .  S
C1605      C1606   1.445       .  A
C1606      N1607   1.430       .  S
N1607      H1611   1.047       .  S
N1607      H1612   1.046       .  S
N1610      H1613   1.045       .  S
N1610      H1614   1.044       .  S
C1615      C1616   1.403       .  A
C1615      C1620   1.421       .  A
C1615      H1622   1.083       .  S
C1616      C1617   1.405       .  A
C1617      C1618   1.383       .  A
C1617      N1624   1.432       .  S
C1618      C1619   1.416       .  A
C1618      H1623   1.079       .  S
C1619      C1620   1.434       .  A
C1620      N1621   1.436       .  S
N1621      H1625   1.043       .  S
N1621      H1626   1.045       .  S
N1624      H1627   1.045       .  S
N1624      H1628   1.042       .  S
C1629      C1630   1.410       .  A
C1629      C1634   1.412   1_545  A
C1629      H1636   1.080       .  S
C1630      C1631   1.425       .  A
C1631      C1632   1.394   1_545  A
C1631      N1638   1.432       .  S
C1632      C1633   1.412       .  A
C1632      H1637   1.059       .  S
C1633      C1634   1.439       .  A
C1634      N1635   1.427       .  S
N1635      H1639   1.045       .  S
N1635      H1640   1.046       .  S
N1638      H1641   1.041       .  S
N1638      H1642   1.039       .  S
C1643      C1644   1.401       .  A
C1643      C1648   1.390       .  A
C1643      H1650   1.053       .  S
C1644      C1645   1.442       .  A
C1645      C1646   1.421       .  A
C1645      N1652   1.431       .  S
C1646      C1647   1.413       .  A
C1646      H1651   1.079       .  S
C1647      C1648   1.414       .  A
C1648      N1649   1.432       .  S
N1649      H1653   1.046       .  S
N1649      H1654   1.045       .  S
N1652      H1655   1.045       .  S
N1652      H1656   1.046       .  S
