geometry optimzed in LAMMPS
_audit_creation_date              2020-11-30 
_audit_creation_method            'lammps2cif' 
_symmetry_space_group_name_H-M    'P1' 
_symmetry_Int_Tables_number       1 
_symmetry_cell_setting            triclinic 
loop_ 
_symmetry_equiv_pos_as_xyz 
  x,y,z 
_cell_length_a                    39.55245454 
_cell_length_b                    39.62165699813879 
_cell_length_c                    39.626829429257896 
_cell_angle_alpha                 89.89809609187333 
_cell_angle_beta                  89.89238065770382 
_cell_angle_gamma                 90.22467595689186 
loop_ 
_atom_site_label 
_atom_site_type_symbol 
_atom_site_fract_x 
_atom_site_fract_y 
_atom_site_fract_z 
_atom_site_charge 
N1          N  0.98939174  0.25192094  0.19829313    -0.36700
N2          N  0.98373945  0.19686701  0.24703773    -0.57300
N3          N  0.98815316  0.24549012  0.30080464    -0.36700
N4          N  0.99124270  0.30043563  0.25239715    -0.57300
C5          C  0.97951284  0.22621560  0.17815151     0.26900
C6          C  0.98438205  0.28090902  0.18096036     0.26900
C7          C  0.97850507  0.21738165  0.31769176     0.26900
C8          C  0.98066246  0.27219994  0.32058772     0.26900
C9          C  0.98965936  0.17929926  0.21852213     0.35500
C10         C  0.99062023  0.17585100  0.27301395     0.35500
C11         C  0.99951931  0.32105059  0.22643949     0.35500
C12         C  0.99842325  0.31747760  0.28097741     0.35500
C13         C  0.96823382  0.23898431  0.14758310    -0.22000
C14         C  0.97138892  0.27353471  0.14932386    -0.22000
C15         C  0.96442774  0.22623273  0.34845661    -0.22000
C16         C  0.96548782  0.26095716  0.35016072    -0.22000
C17         C  0.00011445  0.14683957  0.22638414    -0.23000
C18         C  0.00079633  0.14468555  0.26101263    -0.23000
C19         C  0.01196075  0.35142941  0.23849649    -0.23000
C20         C  0.01140169  0.34912959  0.27311548    -0.23000
C21         C  0.98328646  0.19152999  0.18564073    -0.18400
C22         C  0.99322667  0.31360465  0.19220637    -0.18400
C23         C  0.99035267  0.30593744  0.31383967    -0.18400
C24         C  0.98525915  0.18405609  0.30724478    -0.18400
H25         H  0.95922215  0.22483832  0.12603780     0.14500
H26         H  0.96515407  0.29118587  0.12942437     0.14500
H27         H  0.95500436  0.20936870  0.36786630     0.14500
H28         H  0.95721053  0.27613743  0.37127586     0.14500
H29         H  0.00633079  0.12674730  0.20899946     0.12800
H30         H  0.00748227  0.12261376  0.27563688     0.12800
H31         H  0.01998037  0.37314714  0.22389099     0.12800
H32         H  0.01904038  0.36877532  0.29047658     0.12800
H33         H  0.00260771  0.24953197  0.22081188     0.26100
H34         H  0.00334537  0.24608199  0.27934231     0.26100
O35         O  0.49778337  0.09458776  0.05545296    -0.86600
O36         O  0.50238179  0.40259407  0.05676898    -0.86800
O37         O  0.44164408  0.00441371  0.09492309    -0.88400
O38         O  0.05179465  0.00246634  0.09930607    -0.87200
O39         O  0.09489287  0.49954300  0.05668151    -0.86800
O40         O  0.40418803  0.49751856  0.05390915    -0.88100
O41         O  0.50022756  0.44377865  0.09753833    -0.86600
O42         O  0.49647417  0.05430656  0.09718057    -0.86200
Zr43       Zr  0.49959716  0.49782295  0.06896450     2.84300
O44         O  0.03425687  0.46432550  0.03468215    -1.08200
O45         O  0.46533382  0.03271689  0.03418171    -1.08900
C46         C  0.49696213  0.08521448  0.08665324     1.06500
C47         C  0.50187629  0.41282519  0.08778264     1.06500
C48         C  0.41098244  0.00463034  0.08366259     1.09400
C49         C  0.08309677  0.00077334  0.08997848     1.07200
H50         H  0.45170872  0.44884973  0.04826217     0.32800
O51         O  0.46614571  0.46305315  0.03457777    -1.29100
H52         H  0.04621791  0.04825998  0.05095356     0.32500
O53         O  0.03257537  0.03368504  0.03687014    -1.30800
O54         O  0.50062591  0.40349054  0.44407908    -0.86600
O55         O  0.50389516  0.09291931  0.44403201    -0.88100
O56         O  0.40557533  0.44398359  0.49458675    -0.86700
O57         O  0.09660871  0.44141297  0.50421156    -0.86700
O58         O  0.10005062  0.05199124  0.50353026    -0.86400
O59         O  0.40620735  0.05607923  0.49781815    -0.86200
O60         O  0.44805235  0.49628426  0.40339838    -0.86600
O61         O  0.05867225  0.49850832  0.40641659    -0.86100
O62         O  0.40624100  0.49624489  0.44368919    -0.87100
O63         O  0.09829387  0.49691099  0.44880932    -0.86300
O64         O  0.44619886  0.40274442  0.49398530    -0.86700
O65         O  0.44849382  0.09598420  0.49799789    -0.86400
O66         O  0.05987662  0.09338054  0.49791417    -0.86100
O67         O  0.05522874  0.40080429  0.50105056    -0.86500
O68         O  0.50226783  0.44471047  0.40326861    -0.86800
O69         O  0.50320503  0.05121875  0.40382215    -0.88100
Zr70       Zr  0.50096634  0.43006116  0.49948853     2.83100
Zr71       Zr  0.50198424  0.06650224  0.50008108     2.83500
Zr72       Zr  0.43343314  0.49880305  0.49857214     2.84100
Zr73       Zr  0.06870538  0.49593959  0.50306845     2.83400
Zr74       Zr  0.50278533  0.49900242  0.43174526     2.84200
O75         O  0.03860239  0.03179484  0.46655137    -1.08700
O76         O  0.46810875  0.46494291  0.46525809    -1.08200
C77         C  0.50111895  0.41365984  0.41308492     1.06500
C78         C  0.50360044  0.08238094  0.41314463     1.09100
C79         C  0.41534010  0.41298794  0.49233253     1.06700
C80         C  0.08641748  0.41052146  0.50237551     1.09000
C81         C  0.09069428  0.08304785  0.50071949     1.06600
C82         C  0.41718911  0.08688188  0.49716211     1.06200
C83         C  0.41677935  0.49521694  0.41288511     1.06600
C84         C  0.08938979  0.49792445  0.41743893     1.06100
H85         H  0.45455368  0.04689068  0.45094496     0.32800
O86         O  0.46782166  0.03285132  0.46576402    -1.29800
H87         H  0.05026578  0.44807437  0.45337576     0.32800
O88         O  0.03597249  0.46228731  0.46712730    -1.31100
N89         N  0.25400663  0.00292735  0.30166289    -0.36700
N90         N  0.30321463  0.01002902  0.24859036    -0.57300
N91         N  0.24878045  0.00741221  0.19928229    -0.36700
N92         N  0.19961265  0.00259546  0.25223249    -0.57300
C93         C  0.28209024  0.01077751  0.31948224     0.26900
C94         C  0.22706191  0.00972092  0.32150767     0.26900
C95         C  0.27467636  0.01943664  0.18046397     0.26900
C96         C  0.21996722  0.01381519  0.18219748     0.26900
C97         C  0.32374646  0.00093925  0.27419316     0.35500
C98         C  0.32087463  0.00507063  0.21990788     0.35500
C99         C  0.18207625  0.99475409  0.28039170     0.35500
C100        C  0.17948817  0.99488632  0.22583573     0.35500
C101        C  0.27296639  0.02248292  0.35113022    -0.22000
C102        C  0.23819043  0.02199253  0.35235942    -0.22000
C103        C  0.26220569  0.03383249  0.15110975    -0.22000
C104        C  0.22756526  0.03024308  0.15218559    -0.22000
C105        C  0.35464339  0.99020404  0.26180090    -0.23000
C106        C  0.35281730  0.99280163  0.22726539    -0.23000
C107        C  0.15058667  0.98178692  0.27189420    -0.23000
C108        C  0.14894727  0.98187540  0.23720248    -0.23000
C109        C  0.31563987  0.00526636  0.30855115    -0.18400
C110        C  0.19295412  0.00253787  0.31341364    -0.18400
C111        C  0.18743880  0.00272790  0.19199885    -0.18400
C112        C  0.30922457  0.01410781  0.18752938    -0.18400
H113        H  0.28963357  0.03025692  0.37133232     0.14500
H114        H  0.22288586  0.02925521  0.37379756     0.14500
H115        H  0.27665056  0.04494174  0.13066638     0.14500
H116        H  0.21003493  0.03814885  0.13279853     0.14500
H117        H  0.37633064  0.98188679  0.27615321     0.12800
H118        H  0.37282439  0.98676690  0.20963987     0.12800
H119        H  0.13059839  0.97397811  0.28892717     0.12800
H120        H  0.12748303  0.97412651  0.22214238     0.12800
H121        H  0.25343130  0.98984146  0.27894655     0.26100
H122        H  0.25100572  0.99161857  0.22016259     0.26100
N123        N  0.25065482  0.30046935  0.48210896    -0.36700
N124        N  0.30390373  0.25020198  0.48243613    -0.57300
N125        N  0.25291808  0.19850444  0.49055560    -0.36700
N126        N  0.19986034  0.24874588  0.48801495    -0.57300
C127        C  0.27749535  0.31887712  0.47165590     0.26900
C128        C  0.22254831  0.31826927  0.47472261     0.26900
C129        C  0.28039226  0.17988505  0.48271790     0.26900
C130        C  0.22543914  0.17891117  0.48518092     0.26900
C131        C  0.32240102  0.27843495  0.48747270     0.35500
C132        C  0.32365185  0.22404787  0.49169235     0.35500
C133        C  0.18031597  0.27600643  0.49366556     0.35500
C134        C  0.18148979  0.22160555  0.49757112     0.35500
C135        C  0.26636848  0.34857214  0.45684151    -0.22000
C136        C  0.23154357  0.34824993  0.45892650    -0.22000
C137        C  0.27028502  0.14811462  0.47204044    -0.22000
C138        C  0.23550733  0.14747616  0.47365437    -0.22000
C139        C  0.35416605  0.27016880  0.49966893    -0.23000
C140        C  0.35496733  0.23563861  0.50228978    -0.23000
C141        C  0.14920294  0.26615263  0.50657991    -0.23000
C142        C  0.14991644  0.23156167  0.50895611    -0.23000
C143        C  0.31145166  0.31136067  0.47946986    -0.18400
C144        C  0.18950302  0.30933853  0.48498186    -0.18400
C145        C  0.19185639  0.18792007  0.49306688    -0.18400
C146        C  0.31417283  0.18981445  0.48879952    -0.18400
H147        H  0.28181203  0.36891205  0.44689788     0.14500
H148        H  0.21481224  0.36815155  0.45062548     0.14500
H149        H  0.28634114  0.12728757  0.46477558     0.14500
H150        H  0.21949864  0.12608875  0.46771005     0.14500
H151        H  0.37466354  0.28717524  0.50598631     0.12800
H152        H  0.37615716  0.22081317  0.51101189     0.12800
H153        H  0.12802693  0.28213005  0.51303106     0.12800
H154        H  0.12940209  0.21553481  0.51754015     0.12800
H155        H  0.25176407  0.27964321  0.49806741     0.26100
H156        H  0.25311753  0.22145192  0.50326589     0.26100
C157        C  0.36330639  0.38423139  0.01566789    -0.20400
C158        C  0.38882278  0.38720990  0.48773704    -0.07000
C159        C  0.39069429  0.36233249  0.46221684     0.13900
C160        C  0.36391733  0.33930178  0.45861253    -0.20500
C161        C  0.33647612  0.33933024  0.48111196    -0.07000
C162        C  0.33774698  0.35967453  0.01494695     0.13900
C163        C  0.31275341  0.35777392  0.04368494    -0.23800
H164        H  0.36432912  0.40166353  0.03639518     0.15200
H165        H  0.36503853  0.32014419  0.43914737     0.15200
C166        C  0.42082979  0.35964880  0.43899265    -0.23800
H167        H  0.28678510  0.36249070  0.03437841     0.05400
H168        H  0.31165763  0.38280277  0.55302434     0.08600
H169        H  0.31379235  0.33241337  0.05559835     0.08600
H170        H  0.41705112  0.33999997  0.41938358     0.08600
H171        H  0.40017609  0.36413047  0.91111556     0.08600
H172        H  0.42546830  0.38402910  0.42604231     0.05400
C173        C  0.36465255  0.11227516  0.02004398    -0.20400
C174        C  0.39178324  0.11393136  0.49519597    -0.07000
C175        C  0.39372873  0.13983860  0.47065249     0.13900
C176        C  0.36764603  0.16364554  0.46871405    -0.20500
C177        C  0.34071014  0.16337458  0.49186883    -0.07000
C178        C  0.34003462  0.13757128  0.01924906     0.13900
C179        C  0.31614302  0.14120160  0.04869455    -0.23800
H180        H  0.36542171  0.09471447  0.04105209     0.15200
H181        H  0.36843735  0.18293730  0.44928837     0.15200
C182        C  0.42281828  0.14215136  0.44606920    -0.23800
H183        H  0.32167323  0.12264737  0.06897245     0.05400
H184        H  0.29888194  0.11397185  0.54385409     0.08600
H185        H  0.31862961  0.16691058  0.05955709     0.08600
H186        H  0.42516544  0.11809665  0.43198062     0.08600
H187        H  0.44105215  0.13840863  0.95151483     0.08600
H188        H  0.41926137  0.16283381  0.42746526     0.05400
C189        C  0.10956309  0.35857885  0.97556646    -0.20400
C190        C  0.11259959  0.38435698  0.49920404    -0.07000
C191        C  0.13934740  0.38103520  0.52254694     0.13900
C192        C  0.16447607  0.35681623  0.51673816    -0.20500
C193        C  0.16361170  0.33617035  0.48804371    -0.07000
C194        C  0.13324010  0.33226916  0.97361060     0.13900
C195        C  0.12723921  0.30513266  0.94767300    -0.23800
H196        H  0.08821984  0.35863982  0.95841772     0.15200
H197        H  0.18473117  0.35360974  0.53485313     0.15200
C198        C  0.14098318  0.40221204  0.55397349    -0.23800
H199        H  0.10302702  0.29197389  0.95333768     0.05400
H200        H  0.15659892  0.30194603  0.42938211     0.08600
H201        H  0.12551756  0.31675160  0.92222182     0.08600
H202        H  0.16275634  0.39517284  0.57015160     0.08600
H203        H  0.12089529  0.41006008  0.06453170     0.08600
H204        H  0.14388854  0.42921324  0.54709688     0.05400
C205        C  0.11993944  0.12882753  0.47033883    -0.20400
C206        C  0.11733844  0.10906194  0.49955114    -0.07000
C207        C  0.14005042  0.10906003  0.02826717     0.13900
C208        C  0.16564698  0.13358140  0.02572793    -0.20500
C209        C  0.16596234  0.16085142  0.49493314    -0.07000
C210        C  0.14427340  0.15440146  0.46749757     0.13900
C211        C  0.14732964  0.17401561  0.43501635    -0.23800
H212        H  0.10321440  0.12374826  0.44942712     0.15200
H213        H  0.18606657  0.13378298  0.04395886     0.15200
C214        C  0.14192087  0.08438774  0.05727246    -0.23800
H215        H  0.14237557  0.20115595  0.43968073     0.05400
H216        H  0.12905205  0.16499748  0.41577293     0.08600
H217        H  0.17320476  0.17109463  0.42452671     0.08600
H218        H  0.16459423  0.06821055  0.05431636     0.08600
H219        H  0.11933402  0.06796116  0.05946223     0.08600
H220        H  0.14402856  0.09846805  0.08139038     0.05400
C221        C  0.39470904  0.02380397  0.36072353    -0.20400
C222        C  0.39091582  0.49374263  0.38618971    -0.07000
C223        C  0.36523495  0.46880184  0.38575180     0.13900
C224        C  0.34105856  0.46932924  0.35988223    -0.20500
C225        C  0.34298440  0.00355142  0.33433033    -0.07000
C226        C  0.36974958  0.02737416  0.33585800     0.13900
C227        C  0.37198287  0.05769866  0.31289797    -0.23800
H228        H  0.41526969  0.04197268  0.36181549     0.15200
H229        H  0.32151083  0.45008317  0.35913673     0.15200
C230        C  0.36358555  0.44126338  0.41199857    -0.23800
H231        H  0.37255535  0.08103155  0.32838191     0.05400
H232        H  0.35025346  0.05983395  0.29546075     0.08600
H233        H  0.39555646  0.05643938  0.29770781     0.08600
H234        H  0.35873336  0.45226012  0.43725905     0.08600
H235        H  0.38782063  0.42739192  0.41244440     0.08600
H236        H  0.34304356  0.42283065  0.40668631     0.05400
C237        C  0.11685942  0.02554310  0.36733968    -0.20400
C238        C  0.11650687  0.49783630  0.39184758    -0.07000
C239        C  0.13808299  0.46977863  0.38792634     0.13900
C240        C  0.16237851  0.47005226  0.36203420    -0.20500
C241        C  0.16745670  0.00313947  0.34098822    -0.07000
C242        C  0.14157997  0.02759606  0.34200671     0.13900
C243        C  0.14082106  0.05661397  0.31734326    -0.23800
H244        H  0.09632099  0.04358987  0.36765187     0.15200
H245        H  0.17882675  0.44849932  0.35863786     0.15200
C246        C  0.13455882  0.43902166  0.41015501    -0.23800
H247        H  0.12000079  0.07444409  0.32310099     0.05400
H248        H  0.13706268  0.04731934  0.29126525     0.08600
H249        H  0.16504842  0.07081529  0.31867213     0.08600
H250        H  0.10864749  0.42838425  0.40778803     0.08600
H251        H  0.13925253  0.44589692  0.43687892     0.08600
H252        H  0.15284622  0.41902447  0.40309547     0.05400
C253        C  0.13593388  0.52510865  0.16495359    -0.20400
C254        C  0.16033931  0.00142796  0.16606225    -0.07000
C255        C  0.16056816  0.97702829  0.14013918     0.13900
C256        C  0.13502190  0.97758211  0.11569682    -0.20500
C257        C  0.10920684  0.00170680  0.11654006    -0.07000
C258        C  0.11065565  0.52679413  0.14010408     0.13900
C259        C  0.08605543  0.55575684  0.14167441    -0.23800
H260        H  0.13655400  0.54387726  0.18482328     0.15200
H261        H  0.13505431  0.95899080  0.09589453     0.15200
C262        C  0.18742183  0.95016890  0.13846400    -0.23800
H263        H  0.07045459  0.55358915  0.16490400     0.05400
H264        H  0.08570305  0.06894085  0.11744958     0.08600
H265        H  0.10025713  0.57998093  0.14239781     0.08600
H266        H  0.18301198  0.93242594  0.11726030     0.08600
H267        H  0.18005565  0.42946095  0.11605310     0.08600
H268        H  0.21266382  0.96187654  0.13468808     0.05400
C269        C  0.38606476  0.03406475  0.13293718    -0.20400
C270        C  0.38345494  0.00852678  0.10853729    -0.07000
C271        C  0.36259692  0.47230417  0.11290589     0.13900
C272        C  0.33768377  0.47349846  0.13796497    -0.20500
C273        C  0.33382308  0.01501876  0.15919978    -0.07000
C274        C  0.36138714  0.03787704  0.15809509     0.13900
C275        C  0.36555550  0.06635142  0.18297162    -0.23800
H276        H  0.40748704  0.05118290  0.13232963     0.15200
H277        H  0.31949620  0.45306898  0.14027975     0.15200
C278        C  0.36354787  0.44275734  0.08929871    -0.23800
H279        H  0.36672255  0.09072436  0.16914326     0.05400
H280        H  0.38266960  0.55985384  0.19474047     0.08600
H281        H  0.34440844  0.06795692  0.20127435     0.08600
H282        H  0.38852276  0.43011796  0.09082989     0.08600
H283        H  0.34770765  0.96961099  0.05763169     0.08600
H284        H  0.34366916  0.42385546  0.09544076     0.05400
C285        C  0.01576955  0.15964386  0.35597513    -0.20400
C286        C  0.49960912  0.15943034  0.33703172    -0.07000
C287        C  0.47041014  0.14055558  0.34536091     0.13900
C288        C  0.47261889  0.11492034  0.36982385    -0.20500
C289        C  0.50326480  0.10811987  0.38627175    -0.07000
C290        C  0.02020319  0.13603390  0.38199979     0.13900
C291        C  0.05002889  0.13972383  0.40520922    -0.23800
H292        H  0.03372919  0.18019349  0.35304988     0.15200
H293        H  0.45026836  0.10044531  0.37650418     0.15200
C294        C  0.43702369  0.14767707  0.32864163    -0.23800
H295        H  0.06639402  0.16139213  0.39793180     0.05400
H296        H  0.06548026  0.11642822  0.40414004     0.08600
H297        H  0.04126070  0.14409284  0.43145145     0.08600
H298        H  0.43940161  0.14436228  0.30092537     0.08600
H299        H  0.42917106  0.17397749  0.33408178     0.08600
H300        H  0.41682485  0.13042516  0.33788890     0.05400
C301        C  0.48002825  0.36079890  0.33604007    -0.20400
C302        C  0.50384274  0.33480217  0.33921515    -0.07000
C303        C  0.01510116  0.32928522  0.36817199     0.13900
C304        C  0.01655102  0.35545032  0.39200787    -0.20500
C305        C  0.50145926  0.38731217  0.38692115    -0.07000
C306        C  0.47921548  0.38768653  0.35900603     0.13900
C307        C  0.45462108  0.41612077  0.35329272    -0.23800
H308        H  0.46267173  0.36044949  0.31489551     0.15200
H309        H  0.03502415  0.35433397  0.41215714     0.15200
C310        C  0.04029086  0.30088091  0.37034469    -0.23800
H311        H  0.43842157  0.41153854  0.33087949     0.05400
H312        H  0.46860576  0.44005805  0.34884465     0.08600
H313        H  0.43790898  0.41899548  0.37557942     0.08600
H314        H  0.05490499  0.29929064  0.34645925     0.08600
H315        H  0.02716441  0.27655062  0.37495272     0.08600
H316        H  0.05848644  0.30473870  0.39131229     0.05400
C317        C  0.47700897  0.38532198  0.13818592    -0.20400
C318        C  0.50342893  0.38713176  0.11456908    -0.07000
C319        C  0.02308727  0.36442340  0.11673925     0.13900
C320        C  0.02201535  0.34140875  0.14369230    -0.20500
C321        C  0.50460648  0.33837659  0.16621514    -0.07000
C322        C  0.47716564  0.36097752  0.16394615     0.13900
C323        C  0.44781678  0.35890468  0.18817820    -0.23800
H324        H  0.45593186  0.40261435  0.13604797     0.15200
H325        H  0.04201007  0.32299871  0.14653591     0.15200
C326        C  0.05258560  0.36380606  0.09259435    -0.23800
H327        H  0.42838638  0.37828475  0.18258194     0.05400
H328        H  0.45674931  0.36298122  0.21438960     0.08600
H329        H  0.43569273  0.33365303  0.18639276     0.08600
H330        H  0.06508905  0.38894340  0.09199050     0.08600
H331        H  0.04368250  0.35727475  0.06686778     0.08600
H332        H  0.07173368  0.34482021  0.10011917     0.05400
C333        C  0.00842715  0.16822601  0.13347009    -0.20400
C334        C  0.49472481  0.16292653  0.16229174    -0.07000
C335        C  0.47100292  0.13601711  0.16310439     0.13900
C336        C  0.47278969  0.11068033  0.13847829    -0.20500
C337        C  0.49672924  0.11218503  0.11234868    -0.07000
C338        C  0.01161572  0.14332851  0.10864690     0.13900
C339        C  0.04039246  0.14580475  0.08368573    -0.23800
H340        H  0.02688758  0.18847897  0.13478411     0.15200
H341        H  0.45487697  0.08993380  0.13929662     0.15200
C342        C  0.44329622  0.13339039  0.18919568    -0.23800
H343        H  0.03035577  0.14900780  0.05775036     0.05400
H344        H  0.05606344  0.12264058  0.08488551     0.08600
H345        H  0.05705728  0.16778993  0.08895956     0.08600
H346        H  0.44247510  0.15534710  0.20643481     0.08600
H347        H  0.44685924  0.11016635  0.20449393     0.08600
H348        H  0.41841297  0.13191995  0.17635529     0.05400
N349        N  0.98641745  0.24652622  0.69889710    -0.36700
N350        N  0.97966153  0.19468112  0.75046378    -0.57300
N351        N  0.98359106  0.24719846  0.80139669    -0.36700
N352        N  0.98725810  0.29883250  0.75003437    -0.57300
C353        C  0.97839123  0.21929924  0.68008034     0.26900
C354        C  0.98025888  0.27419371  0.67989798     0.26900
C355        C  0.97394804  0.22045747  0.82037203     0.26900
C356        C  0.97838135  0.27531990  0.81996706     0.26900
C357        C  0.98749679  0.17524433  0.72356858     0.35500
C358        C  0.98506935  0.17553525  0.77819079     0.35500
C359        C  0.99667726  0.31673374  0.72254539     0.35500
C360        C  0.99697194  0.31701494  0.77716355     0.35500
C361        C  0.96695300  0.22966106  0.64868131    -0.22000
C362        C  0.96794582  0.26442590  0.64862944    -0.22000
C363        C  0.96205606  0.23169821  0.85130986    -0.22000
C364        C  0.96458391  0.26641265  0.85094969    -0.22000
C365        C  0.99725672  0.14340781  0.73417071    -0.23000
C366        C  0.99572080  0.14358445  0.76882500    -0.23000
C367        C  0.01240804  0.34649632  0.73214972    -0.23000
C368        C  0.01266882  0.34664053  0.76686933    -0.23000
C369        C  0.98431361  0.18552065  0.68956829    -0.18400
C370        C  0.98868677  0.30760796  0.68910423    -0.18400
C371        C  0.98948481  0.30810846  0.81091679    -0.18400
C372        C  0.97933064  0.18625953  0.81176105    -0.18400
H373        H  0.95927048  0.21379174  0.62782496     0.14500
H374        H  0.96128876  0.28061057  0.62765535     0.14500
H375        H  0.95345784  0.21640286  0.87232081     0.14500
H376        H  0.95844783  0.28306803  0.87168366     0.14500
H377        H  0.00465590  0.12228491  0.71856711     0.12800
H378        H  0.00187847  0.12262916  0.78522061     0.12800
H379        H  0.02237843  0.36609688  0.71583055     0.12800
H380        H  0.02292932  0.36638504  0.78271355     0.12800
H381        H  0.99968428  0.24599653  0.72151228     0.26100
H382        H  0.99766985  0.24594454  0.77927054     0.26100
O383        O  0.49970213  0.09577760  0.55388639    -0.86600
O384        O  0.49830980  0.40246882  0.55465810    -0.86800
O385        O  0.44131059  0.00448500  0.59581177    -0.88400
O386        O  0.05465584  0.00218047  0.59853435    -0.87200
O387        O  0.09343218  0.49630717  0.55950347    -0.86800
O388        O  0.40411299  0.49853080  0.55259579    -0.88100
O389        O  0.49608525  0.44316773  0.59591934    -0.86600
O390        O  0.49498868  0.05565931  0.59563008    -0.86200
Zr391      Zr  0.49979829  0.49813811  0.56801448     2.84300
O392        O  0.03320947  0.46285819  0.53692491    -1.08200
O393        O  0.46567802  0.03393951  0.53377076    -1.08900
C394        C  0.49690648  0.08645174  0.58498973     1.06500
C395        C  0.49635074  0.41217707  0.58574193     1.06500
C396        C  0.41061546  0.00522177  0.58485585     1.09400
C397        C  0.08600709  0.00121393  0.58951422     1.07200
H398        H  0.45123308  0.44997688  0.54666522     0.32800
O399        O  0.46608461  0.46401903  0.53319787    -1.29100
H400        H  0.05024672  0.04800733  0.54898490     0.32500
O401        O  0.03629862  0.03365793  0.53502102    -1.30800
O402        O  0.50137367  0.40118937  0.94610844    -0.86600
O403        O  0.49962201  0.09455552  0.94590235    -0.88100
O404        O  0.40526586  0.44286917  0.99621311    -0.86700
O405        O  0.09717355  0.44299931  0.00107663    -0.86700
O406        O  0.09600350  0.05233614  0.00451565    -0.86400
O407        O  0.40497493  0.05288258  0.99773132    -0.86200
O408        O  0.44786424  0.49812539  0.90427831    -0.86600
O409        O  0.05831837  0.50147373  0.90452842    -0.86100
O410        O  0.40624362  0.49772252  0.94473961    -0.87100
O411        O  0.09836020  0.49980254  0.94645359    -0.86300
O412        O  0.44616868  0.40178768  0.99604716    -0.86700
O413        O  0.44603794  0.09405867  0.99876558    -0.86400
O414        O  0.05542742  0.09357377  0.00216100    -0.86100
O415        O  0.05593619  0.40216471  0.99888624    -0.86500
O416        O  0.50111422  0.44277940  0.90567058    -0.86800
O417        O  0.49875400  0.05402074  0.90458845    -0.88100
Zr418      Zr  0.50142645  0.42936226  0.00091934     2.83100
Zr419      Zr  0.50053378  0.06667471  0.00089885     2.83500
Zr420      Zr  0.43319370  0.49780303  0.99988310     2.84100
Zr421      Zr  0.06918584  0.49814270  0.00077367     2.83400
Zr422      Zr  0.50246246  0.49812988  0.93304978     2.84200
O423        O  0.03493890  0.03253074  0.96777461    -1.08700
O424        O  0.46801851  0.46387184  0.96662763    -1.08200
C425        C  0.50041763  0.41152625  0.91515731     1.06500
C426        C  0.49819493  0.08499092  0.91478060     1.09100
C427        C  0.41513912  0.41185627  0.99439488     1.06700
C428        C  0.08712849  0.41188589  0.99987396     1.09000
C429        C  0.08643001  0.08337601  0.00398646     1.06600
C430        C  0.41509630  0.08392568  0.99733955     1.06200
C431        C  0.41659180  0.49766433  0.91383497     1.06600
C432        C  0.08920044  0.50132110  0.91521154     1.06100
H433        H  0.45328425  0.04636150  0.95176745     0.32800
O434        O  0.46733979  0.03256851  0.96614010    -1.29800
H435        H  0.05033939  0.45034187  0.95142586     0.32800
O436        O  0.03600838  0.46428153  0.96541727    -1.31100
N437        N  0.25139528  0.00324710  0.80450985    -0.36700
N438        N  0.30257233  0.00901996  0.75211729    -0.57300
N439        N  0.24983743  0.00926724  0.70194713    -0.36700
N440        N  0.19863781  0.00614276  0.75397656    -0.57300
C441        C  0.27928091  0.01021941  0.82292345     0.26900
C442        C  0.22425383  0.01032182  0.82402512     0.26900
C443        C  0.27667391  0.01928698  0.68323196     0.26900
C444        C  0.22176566  0.01626928  0.68395084     0.26900
C445        C  0.32214912  0.00001478  0.77842341     0.35500
C446        C  0.32148679  0.00456297  0.72411579     0.35500
C447        C  0.17965410  0.99906067  0.78146778     0.35500
C448        C  0.17896822  0.99996816  0.72683491     0.35500
C449        C  0.26982258  0.02164701  0.85460550    -0.22000
C450        C  0.23502759  0.02175506  0.85528665    -0.22000
C451        C  0.26554255  0.03303298  0.65305387    -0.22000
C452        C  0.23079488  0.03112373  0.65349988    -0.22000
C453        C  0.35375101  0.98995841  0.76714944    -0.23000
C454        C  0.35334592  0.99292420  0.73261804    -0.23000
C455        C  0.14763470  0.98857507  0.77179342    -0.23000
C456        C  0.14722710  0.98905466  0.73711718    -0.23000
C457        C  0.31290899  0.00433376  0.81250278    -0.18400
C458        C  0.19015485  0.00448306  0.81508577    -0.18400
C459        C  0.18857180  0.00672698  0.69312712    -0.18400
C460        C  0.31081403  0.01295224  0.69125954    -0.18400
H461        H  0.28628080  0.02887599  0.87517729     0.14500
H462        H  0.21943594  0.02906352  0.87650720     0.14500
H463        H  0.28090962  0.04256837  0.63248560     0.14500
H464        H  0.21411096  0.03891277  0.63333905     0.14500
H465        H  0.37505064  0.98199042  0.78226734     0.12800
H466        H  0.37418305  0.98750907  0.71576089     0.12800
H467        H  0.12662296  0.98183797  0.78802925     0.12800
H468        H  0.12581906  0.98273494  0.72134329     0.12800
H469        H  0.25102268  0.99058901  0.78155508     0.26100
H470        H  0.25073385  0.99413056  0.72337659     0.26100
N471        N  0.25011164  0.29794027  0.99173259    -0.36700
N472        N  0.30315383  0.24757138  0.98687286    -0.57300
N473        N  0.25217983  0.19541827  0.99458722    -0.36700
N474        N  0.19957987  0.24574359  0.99721019    -0.57300
C475        C  0.27680218  0.31693974  0.98172251     0.26900
C476        C  0.22169917  0.31577946  0.98523207     0.26900
C477        C  0.27909800  0.17732424  0.98424037     0.26900
C478        C  0.22438251  0.17618872  0.98957487     0.26900
C479        C  0.32209059  0.27532557  0.99290734     0.35500
C480        C  0.32302852  0.22077430  0.99369711     0.35500
C481        C  0.18036433  0.27280314  0.00460309     0.35500
C482        C  0.18213241  0.21834899  0.00764872     0.35500
C483        C  0.26531816  0.34729252  0.96870671    -0.22000
C484        C  0.23050962  0.34652837  0.97083006    -0.22000
C485        C  0.26837270  0.14620293  0.97228352    -0.22000
C486        C  0.23368540  0.14549965  0.97561861    -0.22000
C487        C  0.35423785  0.26613025  0.00327998    -0.23000
C488        C  0.35484237  0.23146901  0.00373010    -0.23000
C489        C  0.15049529  0.26262953  0.01994576    -0.23000
C490        C  0.15170507  0.22800524  0.02207236    -0.23000
C491        C  0.31115746  0.30873325  0.98727123    -0.18400
C492        C  0.18842872  0.30609400  0.99470655    -0.18400
C493        C  0.19137511  0.18492832  0.99985185    -0.18400
C494        C  0.31306306  0.18685806  0.98937009    -0.18400
H495        H  0.28050450  0.36811719  0.95941088     0.14500
H496        H  0.21366340  0.36665797  0.96337158     0.14500
H497        H  0.28401750  0.12581301  0.96310556     0.14500
H498        H  0.21730452  0.12450404  0.96930634     0.14500
H499        H  0.37507491  0.28264278  0.00980440     0.12800
H500        H  0.37619607  0.21594838  0.01067283     0.12800
H501        H  0.12973910  0.27841609  0.02801413     0.12800
H502        H  0.13193073  0.21171107  0.03182227     0.12800
H503        H  0.25161254  0.27613994  0.00628343     0.26100
H504        H  0.25320952  0.21757126  0.00860807     0.26100
C505        C  0.36082305  0.38788038  0.50938601    -0.20400
C506        C  0.38849680  0.38578941  0.99084074    -0.07000
C507        C  0.38780052  0.36224871  0.96398278     0.13900
C508        C  0.36193348  0.33781339  0.96299802    -0.20500
C509        C  0.33681839  0.33635685  0.98809695    -0.07000
C510        C  0.33511360  0.36364684  0.50710514     0.13900
C511        C  0.30764360  0.36305918  0.53356385    -0.23800
H512        H  0.35977574  0.40667738  0.52906538     0.15200
H513        H  0.36141623  0.31961406  0.94260028     0.15200
C514        C  0.41340495  0.36242758  0.93574979    -0.23800
H515        H  0.28265584  0.36766647  0.52187347     0.05400
H516        H  0.31828181  0.37681801  0.06343723     0.08600
H517        H  0.30733522  0.33816000  0.54647063     0.08600
H518        H  0.43119565  0.38399302  0.93710392     0.08600
H519        H  0.44360890  0.35267689  0.45369881     0.08600
H520        H  0.42821811  0.33868955  0.93642652     0.05400
C521        C  0.36484905  0.11349737  0.51820029    -0.20400
C522        C  0.38922460  0.11016464  0.99469120    -0.07000
C523        C  0.38916796  0.13346758  0.96763970     0.13900
C524        C  0.36351992  0.15772862  0.96598434    -0.20500
C525        C  0.33901099  0.16000267  0.99148956    -0.07000
C526        C  0.33984056  0.13844076  0.51755177     0.13900
C527        C  0.31366790  0.13780510  0.54527683    -0.23800
H528        H  0.36385216  0.09406036  0.53749896     0.15200
H529        H  0.36284699  0.17539421  0.94507814     0.15200
C530        C  0.41592654  0.13264821  0.94046033    -0.23800
H531        H  0.32652750  0.13898135  0.57013784     0.05400
H532        H  0.28968443  0.13707462  0.04045595     0.08600
H533        H  0.29589311  0.15927936  0.54421804     0.08600
H534        H  0.41656178  0.10731531  0.92853929     0.08600
H535        H  0.44668981  0.14734475  0.45983038     0.08600
H536        H  0.41106806  0.15160966  0.92038757     0.05400
C537        C  0.11160512  0.36346113  0.47070940    -0.20400
C538        C  0.11318554  0.38497600  0.99891303    -0.07000
C539        C  0.14072916  0.38429686  0.02154145     0.13900
C540        C  0.16452525  0.35820379  0.01951726    -0.20500
C541        C  0.16148279  0.33238550  0.99560670    -0.07000
C542        C  0.13700005  0.33969748  0.46457409     0.13900
C543        C  0.13480601  0.31911844  0.43273296    -0.23800
H544        H  0.09131173  0.36635109  0.45256375     0.15200
H545        H  0.18568887  0.35776501  0.03686893     0.15200
C546        C  0.14428905  0.40999380  0.04900567    -0.23800
H547        H  0.11132083  0.30368686  0.43318677     0.05400
H548        H  0.14759274  0.28605751  0.94684440     0.08600
H549        H  0.13405519  0.33629997  0.41056992     0.08600
H550        H  0.16589108  0.40411003  0.06577622     0.08600
H551        H  0.11751386  0.39867249  0.56894652     0.08600
H552        H  0.14876923  0.43535753  0.03794281     0.05400
C553        C  0.11283049  0.13392142  0.97913722    -0.20400
C554        C  0.11326250  0.10928308  0.00451144    -0.07000
C555        C  0.13966047  0.11486739  0.52675737     0.13900
C556        C  0.16361262  0.14104236  0.52423417    -0.20500
C557        C  0.16475601  0.15845835  0.00053101    -0.07000
C558        C  0.13835233  0.15834531  0.97663231     0.13900
C559        C  0.13755394  0.18335449  0.94789753    -0.23800
H560        H  0.09271428  0.13359587  0.96073182     0.15200
H561        H  0.18064281  0.14606095  0.54504876     0.15200
C562        C  0.13788934  0.09396485  0.55850314    -0.23800
H563        H  0.11629935  0.17821728  0.93037902     0.05400
H564        H  0.16146897  0.18187076  0.93327027     0.08600
H565        H  0.13436727  0.20936749  0.95759015     0.08600
H566        H  0.14349010  0.06718197  0.55265815     0.08600
H567        H  0.11225250  0.09565532  0.56961016     0.08600
H568        H  0.15636586  0.10273276  0.57769361     0.05400
C569        C  0.39133978  0.02407068  0.86424968    -0.20400
C570        C  0.39047419  0.49789006  0.88723249    -0.07000
C571        C  0.36304772  0.47483910  0.88727320     0.13900
C572        C  0.33867179  0.47686274  0.86163336    -0.20500
C573        C  0.33979010  0.00312354  0.83850206    -0.07000
C574        C  0.36571287  0.02773430  0.84024896     0.13900
C575        C  0.36659839  0.05861828  0.81799721    -0.23800
H576        H  0.41112045  0.04300884  0.86576136     0.15200
H577        H  0.31780653  0.45904156  0.86126218     0.15200
C578        C  0.35971257  0.44763123  0.91377637    -0.23800
H579        H  0.39005818  0.05851797  0.80256107     0.05400
H580        H  0.36635359  0.08153891  0.83406100     0.08600
H581        H  0.34467794  0.06037325  0.80075542     0.08600
H582        H  0.35558560  0.45911690  0.93894757     0.08600
H583        H  0.38294617  0.43206314  0.91439162     0.08600
H584        H  0.33796618  0.43058514  0.90865923     0.05400
C585        C  0.11487343  0.02669526  0.87058600    -0.20400
C586        C  0.11618626  0.50400520  0.88949774    -0.07000
C587        C  0.14310823  0.48067977  0.88768873     0.13900
C588        C  0.16716813  0.48398971  0.86183271    -0.20500
C589        C  0.16425828  0.00379872  0.84237945    -0.07000
C590        C  0.13994432  0.02960491  0.84569053     0.13900
C591        C  0.14111179  0.06075656  0.82383688    -0.23800
H592        H  0.09581823  0.04616347  0.87290467     0.15200
H593        H  0.18726310  0.46558655  0.85959505     0.15200
C594        C  0.14617370  0.45181958  0.91232875    -0.23800
H595        H  0.12094081  0.07892560  0.83074776     0.05400
H596        H  0.13763479  0.05399183  0.79693973     0.08600
H597        H  0.16589776  0.07361812  0.82698727     0.08600
H598        H  0.12293623  0.43603178  0.91164283     0.08600
H599        H  0.14993521  0.46171474  0.93823306     0.08600
H600        H  0.16808757  0.43541147  0.90632407     0.05400
C601        C  0.13918413  0.52913932  0.66098549    -0.20400
C602        C  0.16244291  0.00505551  0.66627173    -0.07000
C603        C  0.16298715  0.97964815  0.64132128     0.13900
C604        C  0.13771525  0.97920908  0.61660497    -0.20500
C605        C  0.11168964  0.00308446  0.61644594    -0.07000
C606        C  0.11155855  0.52764612  0.63880848     0.13900
C607        C  0.08560253  0.55541802  0.63942014    -0.23800
H608        H  0.14205946  0.55056766  0.67771846     0.15200
H609        H  0.13800226  0.95989233  0.59750347     0.15200
C610        C  0.18976947  0.95265687  0.64103754    -0.23800
H611        H  0.06097222  0.54509206  0.64815578     0.05400
H612        H  0.08410762  0.06881694  0.61697413     0.08600
H613        H  0.09300938  0.57615253  0.65676492     0.08600
H614        H  0.18545972  0.93401130  0.62060403     0.08600
H615        H  0.18013486  0.43392722  0.67144077     0.08600
H616        H  0.21507524  0.96407892  0.63689979     0.05400
C617        C  0.38531068  0.03480199  0.63393371    -0.20400
C618        C  0.38372988  0.00816218  0.61063925    -0.07000
C619        C  0.36156221  0.47576622  0.61176193     0.13900
C620        C  0.33778439  0.47720268  0.63791989    -0.20500
C621        C  0.33598378  0.01282407  0.66340482    -0.07000
C622        C  0.36149343  0.03772144  0.66007887     0.13900
C623        C  0.36420408  0.06758453  0.68345151    -0.23800
H624        H  0.40516621  0.05355538  0.63159164     0.15200
H625        H  0.31836811  0.45790407  0.63990672     0.15200
C626        C  0.35991816  0.44708165  0.58698487    -0.23800
H627        H  0.36298341  0.09129837  0.66853070     0.05400
H628        H  0.36880457  0.54894456  0.70977689     0.08600
H629        H  0.34367713  0.06836836  0.70250217     0.08600
H630        H  0.38424354  0.43317074  0.58692012     0.08600
H631        H  0.35020974  0.96377004  0.56404672     0.08600
H632        H  0.33942210  0.42890232  0.59336477     0.05400
C633        C  0.00941356  0.16324908  0.86156772    -0.20400
C634        C  0.48950370  0.16150828  0.83821377    -0.07000
C635        C  0.46494282  0.13569483  0.84075686     0.13900
C636        C  0.46847194  0.11069058  0.86574425    -0.20500
C637        C  0.49539044  0.11174054  0.88883126    -0.07000
C638        C  0.01478294  0.13893848  0.88677318     0.13900
C639        C  0.04438362  0.14308602  0.91022166    -0.23800
H640        H  0.02698411  0.18415927  0.85884477     0.15200
H641        H  0.44990298  0.09062040  0.86766150     0.15200
C642        C  0.43479302  0.13510202  0.81761741    -0.23800
H643        H  0.05977382  0.16569661  0.90375182     0.05400
H644        H  0.06092756  0.12057388  0.90860526     0.08600
H645        H  0.03527500  0.14626065  0.93652258     0.08600
H646        H  0.44308810  0.13208848  0.79104092     0.08600
H647        H  0.42054135  0.15906810  0.82013276     0.08600
H648        H  0.41743305  0.11396773  0.82383966     0.05400
C649        C  0.47014537  0.36169024  0.83883222    -0.20400
C650        C  0.49272394  0.33454475  0.83864191    -0.07000
C651        C  0.01712743  0.33268030  0.86338391     0.13900
C652        C  0.01865051  0.35826092  0.88791742    -0.20500
C653        C  0.49763835  0.38548692  0.88840291    -0.07000
C654        C  0.47283356  0.38762432  0.86274496     0.13900
C655        C  0.44889409  0.41704846  0.86044270    -0.23800
H656        H  0.45084962  0.36299635  0.81948729     0.15200
H657        H  0.03749518  0.35690638  0.90770097     0.15200
C658        C  0.04258747  0.30446239  0.86440393    -0.23800
H659        H  0.42998714  0.41358039  0.84004001     0.05400
H660        H  0.46320143  0.44053060  0.85478130     0.08600
H661        H  0.43503976  0.42001162  0.88458255     0.08600
H662        H  0.05675706  0.30363953  0.84020803     0.08600
H663        H  0.02977325  0.27988353  0.86855518     0.08600
H664        H  0.06111881  0.30795495  0.88514506     0.05400
C665        C  0.46591034  0.38443775  0.63328970    -0.20400
C666        C  0.49413693  0.38550798  0.61176109    -0.07000
C667        C  0.01917378  0.35840279  0.61384127     0.13900
C668        C  0.01643994  0.33359419  0.63902237    -0.20500
C669        C  0.48850544  0.33500625  0.66183531    -0.07000
C670        C  0.46248770  0.35911415  0.65796112     0.13900
C671        C  0.43068684  0.35845004  0.67897090    -0.23800
H672        H  0.44610696  0.40307820  0.63039995     0.15200
H673        H  0.03515444  0.31373771  0.64057896     0.15200
C674        C  0.04843304  0.35704501  0.58944189    -0.23800
H675        H  0.40835572  0.35657506  0.66211837     0.05400
H676        H  0.42889269  0.38208252  0.69386087     0.08600
H677        H  0.42964248  0.33677763  0.69667170     0.08600
H678        H  0.06290831  0.38105549  0.59058912     0.08600
H679        H  0.03906468  0.35303311  0.56337802     0.08600
H680        H  0.06598109  0.33606561  0.59544286     0.05400
C681        C  0.01830599  0.16050972  0.64317703    -0.20400
C682        C  0.49442025  0.16063392  0.66341420    -0.07000
C683        C  0.46739687  0.13751594  0.65951725     0.13900
C684        C  0.46889062  0.11363669  0.63354605    -0.20500
C685        C  0.49606114  0.11307959  0.61078737    -0.07000
C686        C  0.02326030  0.13762498  0.61664576     0.13900
C687        C  0.05624895  0.13917847  0.59761323    -0.23800
H688        H  0.03794072  0.17873753  0.64907679     0.15200
H689        H  0.44842965  0.09562792  0.63069761     0.15200
C690        C  0.43643345  0.13772809  0.68177994    -0.23800
H691        H  0.05936412  0.16454641  0.58603867     0.05400
H692        H  0.05781799  0.12018113  0.57723382     0.08600
H693        H  0.07752384  0.13475716  0.61531099     0.08600
H694        H  0.43704517  0.15781014  0.70118493     0.08600
H695        H  0.43405153  0.11305269  0.69488324     0.08600
H696        H  0.41360937  0.14178748  0.66602504     0.05400
N697        N  0.99855527  0.74838574  0.19987719    -0.36700
N698        N  0.99037053  0.69541484  0.24988884    -0.57300
N699        N  0.99762760  0.74583792  0.30303051    -0.36700
N700        N  0.00304773  0.79849050  0.25329983    -0.57300
C701        C  0.98885489  0.72214963  0.18020758     0.26900
C702        C  0.99407977  0.77711107  0.18188199     0.26900
C703        C  0.98559481  0.71884234  0.32019071     0.26900
C704        C  0.99185409  0.77341456  0.32224745     0.26900
C705        C  0.99751360  0.67674603  0.22233320     0.35500
C706        C  0.99661447  0.67550940  0.27682907     0.35500
C707        C  0.01078382  0.81814626  0.22650318     0.35500
C708        C  0.01074185  0.81661298  0.28112226     0.35500
C709        C  0.97830567  0.73430272  0.14914587    -0.22000
C710        C  0.98158517  0.76898338  0.15020092    -0.22000
C711        C  0.97191227  0.72927995  0.35064011    -0.22000
C712        C  0.97583125  0.76383872  0.35192990    -0.22000
C713        C  0.00836267  0.64486842  0.23180671    -0.23000
C714        C  0.00760766  0.64402773  0.26644174    -0.23000
C715        C  0.02364000  0.84887800  0.23733195    -0.23000
C716        C  0.02362783  0.84789541  0.27198044    -0.23000
C717        C  0.99202772  0.68752990  0.18883800    -0.18400
C718        C  0.00282679  0.81017085  0.19269946    -0.18400
C719        C  0.00274957  0.80655200  0.31441770    -0.18400
C720        C  0.99022354  0.68491859  0.31050287    -0.18400
H721        H  0.96961866  0.71967535  0.12778551     0.14500
H722        H  0.97587279  0.78620124  0.12977591     0.14500
H723        H  0.96083983  0.71352119  0.37011010     0.14500
H724        H  0.96822421  0.78000498  0.37255754     0.14500
H725        H  0.01554871  0.62424367  0.21545220     0.12800
H726        H  0.01416006  0.62266588  0.28214839     0.12800
H727        H  0.03121795  0.87016562  0.22188271     0.12800
H728        H  0.03127063  0.86823609  0.28852312     0.12800
H729        H  0.01114632  0.74646189  0.22278034     0.26100
H730        H  0.01287541  0.74484412  0.28162021     0.26100
O731        O  0.50043828  0.59363319  0.05611016    -0.86600
O732        O  0.50027208  0.90332420  0.05610693    -0.86800
O733        O  0.44427482  0.49886440  0.09574663    -0.88400
O734        O  0.05284050  0.50114696  0.09675729    -0.87200
O735        O  0.09364380  0.99816862  0.05925240    -0.86800
O736        O  0.40239789  0.00180340  0.05243992    -0.88100
O737        O  0.49699177  0.94378632  0.09746897    -0.86600
O738        O  0.49900825  0.55254730  0.09702491    -0.86200
Zr739      Zr  0.49791756  0.99908302  0.06985195     2.84300
O740        O  0.03219434  0.96554659  0.03873697    -1.08200
O741        O  0.46635354  0.53214504  0.03461754    -1.08900
C742        C  0.49985308  0.58362852  0.08714696     1.06500
C743        C  0.49877729  0.91284813  0.08721161     1.06500
C744        C  0.41348830  0.49828410  0.08507136     1.09400
C745        C  0.08416999  0.50122094  0.08747278     1.07200
H746        H  0.45050957  0.94965206  0.04848995     0.32800
O747        O  0.46522847  0.96386527  0.03501979    -1.29100
H748        H  0.04804377  0.54703467  0.04817416     0.32500
O749        O  0.03437517  0.53274409  0.03384972    -1.30800
O750        O  0.49866253  0.90195522  0.44792322    -0.86600
O751        O  0.50189883  0.59430447  0.44530292    -0.88100
O752        O  0.40294538  0.94550704  0.49814947    -0.86700
O753        O  0.09716901  0.94225253  0.50375075    -0.86700
O754        O  0.09872078  0.54911243  0.50510359    -0.86400
O755        O  0.40674599  0.55428391  0.49793445    -0.86200
O756        O  0.44922896  0.99830371  0.40387245    -0.86600
O757        O  0.06066218  0.00009891  0.40739000    -0.86100
O758        O  0.40669955  0.99841104  0.44342992    -0.87100
O759        O  0.10034657  0.99859964  0.44962259    -0.86300
O760        O  0.44339394  0.90402827  0.49901842    -0.86700
O761        O  0.44826297  0.59510091  0.49814287    -0.86400
O762        O  0.05859078  0.59066372  0.50107682    -0.86100
O763        O  0.05557710  0.90170058  0.50260729    -0.86500
O764        O  0.50100086  0.94283006  0.40685386    -0.86800
O765        O  0.49970918  0.55380791  0.40392625    -0.88100
Zr766      Zr  0.49897516  0.93035055  0.50281637     2.83100
Zr767      Zr  0.50268410  0.56641441  0.49992537     2.83500
Zr768      Zr  0.43184502  0.99996919  0.49958565     2.84100
Zr769      Zr  0.07057979  0.99784939  0.50314148     2.83400
Zr770      Zr  0.50291285  0.99773803  0.43401050     2.84200
O771        O  0.03684243  0.53046804  0.46710731    -1.08700
O772        O  0.46687426  0.96494506  0.46749122    -1.08200
C773        C  0.49902336  0.91186459  0.41678050     1.06500
C774        C  0.50008099  0.58469198  0.41427888     1.09100
C775        C  0.41251594  0.91435727  0.49746703     1.06700
C776        C  0.08682859  0.91126875  0.50312894     1.09000
C777        C  0.08940168  0.58017250  0.50371584     1.06600
C778        C  0.41707878  0.58527871  0.49773862     1.06200
C779        C  0.41777975  0.99810125  0.41274084     1.06600
C780        C  0.09148176  0.99976014  0.41836084     1.06100
H781        H  0.45425323  0.54698665  0.45096928     0.32800
O782        O  0.46826310  0.53304510  0.46519066    -1.29800
H783        H  0.05132643  0.94929558  0.45472513     0.32800
O784        O  0.03705446  0.96367663  0.46832631    -1.31100
N785        N  0.25229197  0.49320718  0.30153651    -0.36700
N786        N  0.30264172  0.49558407  0.24868239    -0.57300
N787        N  0.24924147  0.49722858  0.19842021    -0.36700
N788        N  0.19880590  0.49735817  0.25125558    -0.57300
C789        C  0.28046216  0.50019856  0.31963551     0.26900
C790        C  0.22540232  0.50109602  0.32112015     0.26900
C791        C  0.27640736  0.50569551  0.17940198     0.26900
C792        C  0.22138654  0.50624086  0.18087059     0.26900
C793        C  0.32313610  0.48906448  0.27507459     0.35500
C794        C  0.32149361  0.49141765  0.22062739     0.35500
C795        C  0.17992305  0.49113438  0.27901811     0.35500
C796        C  0.17825334  0.49282972  0.22442474     0.35500
C797        C  0.27132983  0.51237889  0.35112709    -0.22000
C798        C  0.23658451  0.51288015  0.35208489    -0.22000
C799        C  0.26574230  0.51998412  0.14929949    -0.22000
C800        C  0.23097689  0.52052151  0.15030801    -0.22000
C801        C  0.35520813  0.48068503  0.26375383    -0.23000
C802        C  0.35419045  0.48225436  0.22917722    -0.23000
C803        C  0.14716936  0.48268165  0.26982420    -0.23000
C804        C  0.14612233  0.48368718  0.23517775    -0.23000
C805        C  0.31414949  0.49435139  0.30912126    -0.18400
C806        C  0.19105702  0.49624384  0.31247512    -0.18400
C807        C  0.18761264  0.49945461  0.19062817    -0.18400
C808        C  0.31046537  0.49911036  0.18770877    -0.18400
H809        H  0.28797667  0.52003331  0.37138839     0.14500
H810        H  0.22128290  0.52093716  0.37323709     0.14500
H811        H  0.28139023  0.52889684  0.12866493     0.14500
H812        H  0.21458373  0.52974121  0.13051529     0.14500
H813        H  0.37728675  0.47509305  0.27882630     0.12800
H814        H  0.37532847  0.47805079  0.21232993     0.12800
H815        H  0.12606436  0.47714609  0.28638445     0.12800
H816        H  0.12407054  0.47890290  0.21975630     0.12800
H817        H  0.25137276  0.48035696  0.27870603     0.26100
H818        H  0.24962085  0.48246360  0.22013061     0.26100
N819        N  0.24955874  0.79826540  0.49946995    -0.36700
N820        N  0.30259142  0.74811198  0.50219760    -0.57300
N821        N  0.25169859  0.69556099  0.50738602    -0.36700
N822        N  0.19877567  0.74603628  0.50207655    -0.57300
C823        C  0.27675497  0.81660985  0.48974067     0.26900
C824        C  0.22175926  0.81536393  0.48950041     0.26900
C825        C  0.27946485  0.67699614  0.50039529     0.26900
C826        C  0.22445993  0.67607291  0.50040773     0.26900
C827        C  0.32168778  0.77622799  0.50588856     0.35500
C828        C  0.32288425  0.72159567  0.50898862     0.35500
C829        C  0.17888124  0.77321103  0.50676161     0.35500
C830        C  0.18001547  0.71885542  0.51062635     0.35500
C831        C  0.26616316  0.84553443  0.47311934    -0.22000
C832        C  0.23136753  0.84482575  0.47313582    -0.22000
C833        C  0.26973668  0.64524561  0.48925654    -0.22000
C834        C  0.23500617  0.64465564  0.48928491    -0.22000
C835        C  0.35433236  0.76750349  0.51509651    -0.23000
C836        C  0.35512576  0.73285202  0.51685766    -0.23000
C837        C  0.14735609  0.76331413  0.51859464    -0.23000
C838        C  0.14797180  0.72871090  0.52073052    -0.23000
C839        C  0.31063564  0.80929061  0.49814432    -0.18400
C840        C  0.18809180  0.80632087  0.49742841    -0.18400
C841        C  0.19039277  0.68526786  0.50563727    -0.18400
C842        C  0.31332423  0.68738201  0.50537095    -0.18400
H843        H  0.28189606  0.86547979  0.46283922     0.14500
H844        H  0.21498155  0.86402900  0.46276400     0.14500
H845        H  0.28598289  0.62453467  0.48208423     0.14500
H846        H  0.21932080  0.62341994  0.48208737     0.14500
H847        H  0.37557681  0.78424158  0.51935621     0.12800
H848        H  0.37702945  0.71766595  0.52276364     0.12800
H849        H  0.12585376  0.77924173  0.52400232     0.12800
H850        H  0.12705842  0.71260405  0.52812661     0.12800
H851        H  0.24992466  0.77777602  0.51592861     0.26100
H852        H  0.25133080  0.71878569  0.51955839     0.26100
C853        C  0.36696867  0.88205603  0.01790973    -0.20400
C854        C  0.38587258  0.88827021  0.49570002    -0.07000
C855        C  0.38697781  0.86157580  0.47208693     0.13900
C856        C  0.36174200  0.83657604  0.47301142    -0.20500
C857        C  0.33581795  0.83736557  0.49723902    -0.07000
C858        C  0.34168375  0.85725646  0.01713496     0.13900
C859        C  0.31912786  0.85249306  0.04744369    -0.23800
H860        H  0.36917385  0.89841349  0.03966563     0.15200
H861        H  0.36242022  0.81598551  0.45505286     0.15200
C862        C  0.41418741  0.85970340  0.44545399    -0.23800
H863        H  0.32183442  0.82636517  0.05723906     0.05400
H864        H  0.31095874  0.88877712  0.56377879     0.08600
H865        H  0.32576029  0.87023079  0.06810113     0.08600
H866        H  0.40986920  0.83838171  0.42780093     0.08600
H867        H  0.40755923  0.84714569  0.91454950     0.08600
H868        H  0.41461669  0.88335700  0.43048170     0.05400
C869        C  0.36567981  0.61357006  0.02283647    -0.20400
C870        C  0.39087059  0.61156138  0.49850122    -0.07000
C871        C  0.38701534  0.63586277  0.47257365     0.13900
C872        C  0.36176273  0.66045769  0.47574562    -0.20500
C873        C  0.34029681  0.66126869  0.50398876    -0.07000
C874        C  0.33990293  0.63778262  0.02051072     0.13900
C875        C  0.31350977  0.63952737  0.04794742    -0.23800
H876        H  0.36662028  0.59674505  0.04442308     0.15200
H877        H  0.35846740  0.67894962  0.45582161     0.15200
C878        C  0.40815259  0.63601048  0.44084633    -0.23800
H879        H  0.31913974  0.62185118  0.06896481     0.05400
H880        H  0.29534112  0.63258208  0.55396707     0.08600
H881        H  0.31239314  0.66546523  0.05841071     0.08600
H882        H  0.42666328  0.61512692  0.43992869     0.08600
H883        H  0.43929321  0.63280222  0.94814199     0.08600
H884        H  0.39140001  0.63345142  0.41852062     0.05400
C885        C  0.10830168  0.86071951  0.97523150    -0.20400
C886        C  0.11284975  0.88455864  0.50203558    -0.07000
C887        C  0.14019897  0.88389417  0.52491990     0.13900
C888        C  0.16418228  0.85807109  0.52265473    -0.20500
C889        C  0.16193019  0.83318998  0.49770975    -0.07000
C890        C  0.13308873  0.83588124  0.97019142     0.13900
C891        C  0.12684854  0.81029742  0.94275927    -0.23800
H892        H  0.08573470  0.86037748  0.95973745     0.15200
H893        H  0.18490283  0.85717129  0.54051207     0.15200
C894        C  0.14374791  0.90970612  0.55241364    -0.23800
H895        H  0.10387128  0.79528840  0.94894274     0.05400
H896        H  0.11117234  0.81470000  0.42878017     0.08600
H897        H  0.12271203  0.82356039  0.91841458     0.08600
H898        H  0.16555714  0.90420588  0.56911234     0.08600
H899        H  0.12647044  0.91255812  0.06348082     0.08600
H900        H  0.14792782  0.93507185  0.54123703     0.05400
C901        C  0.11669570  0.62996619  0.47862243    -0.20400
C902        C  0.11611613  0.60600264  0.50452445    -0.07000
C903        C  0.14015965  0.61249705  0.02539306     0.13900
C904        C  0.16476027  0.63807118  0.02248283    -0.20500
C905        C  0.16430052  0.65834241  0.50463037    -0.07000
C906        C  0.14072047  0.65586475  0.47795268     0.13900
C907        C  0.14044127  0.67944509  0.44804756    -0.23800
H908        H  0.09861569  0.62801905  0.45834113     0.15200
H909        H  0.18401907  0.64072975  0.04173735     0.15200
C910        C  0.14074678  0.58918087  0.05547792    -0.23800
H911        H  0.14389540  0.66465291  0.42452006     0.05400
H912        H  0.16072529  0.69874623  0.44884329     0.08600
H913        H  0.11572371  0.69259399  0.44685277     0.08600
H914        H  0.14472972  0.56278870  0.04710288     0.08600
H915        H  0.11644299  0.59078322  0.06938504     0.08600
H916        H  0.16144545  0.59579276  0.07321676     0.05400
C917        C  0.39169774  0.51856199  0.36098571    -0.20400
C918        C  0.39234306  0.99856871  0.38551799    -0.07000
C919        C  0.36511731  0.97535992  0.38457595     0.13900
C920        C  0.34132973  0.97763884  0.35847656    -0.20500
C921        C  0.34129761  0.49473698  0.33513774    -0.07000
C922        C  0.36674922  0.51997641  0.33599007     0.13900
C923        C  0.36788563  0.54934380  0.31176256    -0.23800
H924        H  0.41122032  0.53785711  0.36159020     0.15200
H925        H  0.32070601  0.95957412  0.35732258     0.15200
C926        C  0.36099563  0.94809931  0.41087619    -0.23800
H927        H  0.36750244  0.57332457  0.32621010     0.05400
H928        H  0.34617774  0.54989929  0.29418146     0.08600
H929        H  0.39157237  0.54830575  0.29671682     0.08600
H930        H  0.35624332  0.95955051  0.43595556     0.08600
H931        H  0.38414524  0.93252847  0.41206810     0.08600
H932        H  0.33933507  0.93113771  0.40515476     0.05400
C933        C  0.11979757  0.52560886  0.37004677    -0.20400
C934        C  0.11881000  0.00114999  0.39297040    -0.07000
C935        C  0.14664754  0.97878290  0.39375603     0.13900
C936        C  0.16996956  0.97933188  0.36706960    -0.20500
C937        C  0.16535083  0.49759927  0.33992432    -0.07000
C938        C  0.14418715  0.52592380  0.34422717     0.13900
C939        C  0.14764840  0.55656463  0.32187016    -0.23800
H940        H  0.10321944  0.54709784  0.37328406     0.15200
H941        H  0.19061361  0.96141204  0.36669726     0.15200
C942        C  0.15183295  0.95411539  0.42230824    -0.23800
H943        H  0.12986516  0.57684433  0.32938136     0.05400
H944        H  0.14216816  0.54978996  0.29528653     0.08600
H945        H  0.17378430  0.56674861  0.32357440     0.08600
H946        H  0.12929501  0.93755492  0.42508751     0.08600
H947        H  0.15625990  0.96803707  0.44619287     0.08600
H948        H  0.17419815  0.93780405  0.41795350     0.05400
C949        C  0.13486876  0.02597671  0.16667407    -0.20400
C950        C  0.16087947  0.49994272  0.16415357    -0.07000
C951        C  0.16031777  0.47567084  0.13812827     0.13900
C952        C  0.13515315  0.47741320  0.11344239    -0.20500
C953        C  0.11014868  0.50228046  0.11414325    -0.07000
C954        C  0.10949951  0.02669977  0.14192861     0.13900
C955        C  0.08436418  0.05521597  0.14188661    -0.23800
H956        H  0.13533112  0.04506183  0.18622801     0.15200
H957        H  0.13461559  0.45887841  0.09364843     0.15200
C958        C  0.18557020  0.44727050  0.13684382    -0.23800
H959        H  0.05837555  0.04531514  0.14572575     0.05400
H960        H  0.06897878  0.55696934  0.11960809     0.08600
H961        H  0.08958552  0.07361159  0.16235068     0.08600
H962        H  0.21144952  0.45721802  0.13265149     0.08600
H963        H  0.18745239  0.93536978  0.16227511     0.08600
H964        H  0.18480137  0.43283958  0.16086219     0.05400
C965        C  0.38511274  0.52573525  0.13317424    -0.20400
C966        C  0.38664916  0.49858517  0.11066820    -0.07000
C967        C  0.35498803  0.98683316  0.10872669     0.13900
C968        C  0.33067365  0.99026724  0.13418180    -0.20500
C969        C  0.33612251  0.50060199  0.16049929    -0.07000
C970        C  0.35975443  0.52737051  0.15781679     0.13900
C971        C  0.35874921  0.55802799  0.18022464    -0.23800
H972        H  0.40345687  0.54605880  0.13113398     0.15200
H973        H  0.30947962  0.97285113  0.13522785     0.15200
C974        C  0.35093116  0.95886960  0.08329508    -0.23800
H975        H  0.35607300  0.58102279  0.16440251     0.05400
H976        H  0.38944123  0.06298606  0.19725417     0.08600
H977        H  0.33738755  0.55753729  0.19835197     0.08600
H978        H  0.37354667  0.94237515  0.08382671     0.08600
H979        H  0.35912549  0.45186816  0.06320810     0.08600
H980        H  0.32840107  0.94292429  0.08872110     0.05400
C981        C  0.01882806  0.65954528  0.35961740    -0.20400
C982        C  0.49100777  0.66220724  0.33965930    -0.07000
C983        C  0.46534740  0.63758603  0.34328543     0.13900
C984        C  0.46903802  0.61222121  0.36773735    -0.20500
C985        C  0.49758008  0.61138586  0.38867639    -0.07000
C986        C  0.02268043  0.63495014  0.38471137     0.13900
C987        C  0.05294999  0.63660999  0.40754314    -0.23800
H988        H  0.03750942  0.67950412  0.35712681     0.15200
H989        H  0.44950540  0.59317085  0.37076708     0.15200
C990        C  0.43408028  0.63834077  0.32165928    -0.23800
H991        H  0.04454324  0.64053581  0.43395965     0.05400
H992        H  0.07016707  0.65777865  0.40072483     0.08600
H993        H  0.06745863  0.61273802  0.40567849     0.08600
H994        H  0.44094353  0.63492577  0.29472973     0.08600
H995        H  0.42110056  0.66293969  0.32478122     0.08600
H996        H  0.41602807  0.61797542  0.32872242     0.05400
C997        C  0.47509158  0.86285984  0.33769955    -0.20400
C998        C  0.49782075  0.83581655  0.33920365    -0.07000
C999        C  0.02664523  0.83239328  0.36834605     0.13900
C1000       C  0.02517233  0.85776472  0.39305711    -0.20500
C1001       C  0.49751823  0.88573528  0.39015457    -0.07000
C1002       C  0.47497866  0.88813705  0.36249867     0.13900
C1003       C  0.45027682  0.91686145  0.35925568    -0.23800
H1004       H  0.45750290  0.86426339  0.31679896     0.15200
H1005       H  0.04329510  0.85756421  0.41355396     0.15200
C1006       C  0.05440129  0.80656648  0.37104484    -0.23800
H1007       H  0.43321108  0.91353879  0.33727123     0.05400
H1008       H  0.46404030  0.94104554  0.35564819     0.08600
H1009       H  0.43443816  0.91836906  0.38228553     0.08600
H1010       H  0.05447363  0.78834329  0.34987743     0.08600
H1011       H  0.05154521  0.79222552  0.39498357     0.08600
H1012       H  0.07931071  0.81960424  0.37107211     0.05400
C1013       C  0.47339215  0.88588780  0.13779684    -0.20400
C1014       C  0.49888578  0.88601004  0.11314652    -0.07000
C1015       C  0.02942678  0.86706620  0.12007560     0.13900
C1016       C  0.02905322  0.84128995  0.14448356    -0.20500
C1017       C  0.49715703  0.83550257  0.16351064    -0.07000
C1018       C  0.47156686  0.86034016  0.16230088     0.13900
C1019       C  0.44139924  0.85995304  0.18561122    -0.23800
H1020       H  0.45401861  0.90517885  0.13717066     0.15200
H1021       H  0.04972851  0.82345523  0.14566505     0.15200
C1022       C  0.05960383  0.87070342  0.09700770    -0.23800
H1023       H  0.41784899  0.85922454  0.17039515     0.05400
H1024       H  0.44141884  0.88316801  0.20124330     0.08600
H1025       H  0.44086192  0.83777261  0.20267005     0.08600
H1026       H  0.07059537  0.89641655  0.09960339     0.08600
H1027       H  0.05199505  0.86655711  0.07040845     0.08600
H1028       H  0.07965117  0.85215783  0.10318614     0.05400
C1029       C  0.01795446  0.66256771  0.13746013    -0.20400
C1030       C  0.49485905  0.65973112  0.16422317    -0.07000
C1031       C  0.47099354  0.63301514  0.16319895     0.13900
C1032       C  0.47421684  0.60798063  0.13844055    -0.20500
C1033       C  0.49949922  0.60982256  0.11359077    -0.07000
C1034       C  0.02018674  0.63825377  0.11184974     0.13900
C1035       C  0.04906054  0.64025512  0.08703622    -0.23800
H1036       H  0.03688092  0.68236308  0.13900738     0.15200
H1037       H  0.45599786  0.58745897  0.13778004     0.15200
C1038       C  0.44119290  0.63069023  0.18690632    -0.23800
H1039       H  0.03925851  0.64449298  0.06116922     0.05400
H1040       H  0.06366746  0.61642426  0.08771799     0.08600
H1041       H  0.06661634  0.66136675  0.09295778     0.08600
H1042       H  0.43934559  0.65248345  0.20426475     0.08600
H1043       H  0.44301737  0.60725633  0.20219031     0.08600
H1044       H  0.41743329  0.62982803  0.17202744     0.05400
N1045       N  0.99879430  0.74949982  0.69968135    -0.36700
N1046       N  0.98809949  0.69800588  0.75060839    -0.57300
N1047       N  0.99355372  0.75009917  0.80295829    -0.36700
N1048       N  0.00098690  0.80154213  0.75215573    -0.57300
C1049       C  0.98949382  0.72278013  0.68045125     0.26900
C1050       C  0.99325038  0.77775620  0.68127327     0.26900
C1051       C  0.98388696  0.72333654  0.82184839     0.26900
C1052       C  0.99123323  0.77787591  0.82263125     0.26900
C1053       C  0.99557126  0.67821303  0.72381041     0.35500
C1054       C  0.99158570  0.67843316  0.77834977     0.35500
C1055       C  0.00823080  0.82063953  0.72485784     0.35500
C1056       C  0.00757518  0.82077533  0.77951003     0.35500
C1057       C  0.97820891  0.73414055  0.64938575    -0.22000
C1058       C  0.98051833  0.76882984  0.64991252    -0.22000
C1059       C  0.97539204  0.73416274  0.85404042    -0.22000
C1060       C  0.98001946  0.76859102  0.85453842    -0.22000
C1061       C  0.00344652  0.64590947  0.73456385    -0.23000
C1062       C  0.00067737  0.64597529  0.76908374    -0.23000
C1063       C  0.01952358  0.85225899  0.73486888    -0.23000
C1064       C  0.01911108  0.85233616  0.76955072    -0.23000
C1065       C  0.99273079  0.68838762  0.68968024    -0.18400
C1066       C  0.00112130  0.81121571  0.69125104    -0.18400
C1067       C  0.00087425  0.81103183  0.81319859    -0.18400
C1068       C  0.98626446  0.68914497  0.81197987    -0.18400
H1069       H  0.96926335  0.71899458  0.62850117     0.14500
H1070       H  0.97380294  0.78557362  0.62940447     0.14500
H1071       H  0.96758999  0.71872648  0.87525708     0.14500
H1072       H  0.97627846  0.78479597  0.87618222     0.14500
H1073       H  0.01025436  0.62445984  0.71915259     0.12800
H1074       H  0.00521398  0.62461938  0.78550776     0.12800
H1075       H  0.02647343  0.87333602  0.71884639     0.12800
H1076       H  0.02584397  0.87340866  0.78556906     0.12800
H1077       H  0.01170564  0.74827394  0.72247653     0.26100
H1078       H  0.00512875  0.74874002  0.77952626     0.26100
O1079       O  0.50168119  0.59443234  0.55481010    -0.86600
O1080       O  0.49768791  0.90355834  0.55825536    -0.86800
O1081       O  0.44433729  0.50078479  0.59426875    -0.88400
O1082       O  0.05124570  0.49928670  0.59940832    -0.87200
O1083       O  0.09684337  0.99874314  0.55882899    -0.86800
O1084       O  0.40170343  0.00345285  0.55350830    -0.88100
O1085       O  0.49491641  0.94493168  0.59879512    -0.86600
O1086       O  0.49949469  0.55339213  0.59575253    -0.86200
Zr1087     Zr  0.49702364  0.99972517  0.57010575     2.84300
O1088       O  0.03520857  0.96492118  0.53729694    -1.08200
O1089       O  0.46705528  0.53276907  0.53330726    -1.08900
C1090       C  0.50073256  0.58455743  0.58592315     1.06500
C1091       C  0.49613229  0.91376416  0.58916479     1.06500
C1092       C  0.41350528  0.49991544  0.58373993     1.09400
C1093       C  0.08256127  0.49837091  0.59022041     1.07200
H1094       H  0.44858907  0.95165819  0.54914487     0.32800
O1095       O  0.46361274  0.96523288  0.53542677    -1.29100
H1096       H  0.04784625  0.54488087  0.55008412     0.32500
O1097       O  0.03403700  0.53079245  0.53573985    -1.30800
O1098       O  0.50171684  0.90349860  0.94627494    -0.86600
O1099       O  0.50371629  0.59386431  0.94651182    -0.88100
O1100       O  0.40605796  0.94247382  0.99647522    -0.86700
O1101       O  0.09549451  0.94385233  0.00345983    -0.86700
O1102       O  0.09808318  0.55242679  0.00204012    -0.86400
O1103       O  0.40586823  0.55311026  0.00060096    -0.86200
O1104       O  0.44818046  0.99781582  0.90437021    -0.86600
O1105       O  0.05665692  0.99913036  0.90815448    -0.86100
O1106       O  0.40619107  0.99733951  0.94454230    -0.87100
O1107       O  0.09663518  0.99766785  0.95015530    -0.86300
O1108       O  0.44753297  0.90204442  0.99552725    -0.86700
O1109       O  0.44726178  0.59401431  0.00046629    -0.86400
O1110       O  0.05730937  0.59354222  0.99939883    -0.86100
O1111       O  0.05473595  0.90259102  0.00228303    -0.86500
O1112       O  0.50102620  0.94455730  0.90530215    -0.86800
O1113       O  0.50199738  0.55313187  0.90535207    -0.88100
Zr1114     Zr  0.50146207  0.93105774  0.00127419     2.83100
Zr1115     Zr  0.50178143  0.56590226  0.00127515     2.83500
Zr1116     Zr  0.43278067  0.99804821  0.99945613     2.84100
Zr1117     Zr  0.06704312  0.99839958  0.00404147     2.83400
Zr1118     Zr  0.50280668  0.99935644  0.93302063     2.84200
O1119       O  0.03633449  0.53271426  0.96561067    -1.08700
O1120       O  0.46828057  0.96482749  0.96634406    -1.08200
C1121       C  0.50067270  0.91351111  0.91523871     1.06500
C1122       C  0.50293555  0.58410445  0.91545414     1.09100
C1123       C  0.41644091  0.91165433  0.99441969     1.06700
C1124       C  0.08588506  0.91269177  0.00219970     1.09000
C1125       C  0.08837553  0.58345913  0.00102957     1.06600
C1126       C  0.41612904  0.58413350  0.00008837     1.06200
C1127       C  0.41688030  0.99709716  0.91381149     1.06600
C1128       C  0.08750897  0.99838170  0.91891695     1.06100
H1129       H  0.45403017  0.54639856  0.95222633     0.32800
O1130       O  0.46783589  0.53227195  0.96642242    -1.29800
H1131       H  0.04803645  0.95012507  0.95576161     0.32800
O1132       O  0.03374860  0.96421928  0.96950856    -1.31100
N1133       N  0.25236713  0.50624498  0.80101741    -0.36700
N1134       N  0.30350650  0.50311401  0.74942797    -0.57300
N1135       N  0.25087614  0.50231604  0.69794832    -0.36700
N1136       N  0.19969059  0.50885656  0.74972156    -0.57300
C1137       C  0.28050575  0.51154504  0.81968282     0.26900
C1138       C  0.22560680  0.51617722  0.81974527     0.26900
C1139       C  0.27844757  0.50961729  0.67904509     0.26900
C1140       C  0.22336192  0.50931756  0.67899706     0.26900
C1141       C  0.32275204  0.49533401  0.77642149     0.35500
C1142       C  0.32228925  0.49621595  0.72188497     0.35500
C1143       C  0.18042296  0.50481262  0.77763812     0.35500
C1144       C  0.17971871  0.50104796  0.72319740     0.35500
C1145       C  0.27151890  0.52497775  0.85070103    -0.22000
C1146       C  0.23684428  0.52793488  0.85072449    -0.22000
C1147       C  0.26829203  0.52117674  0.64757453    -0.22000
C1148       C  0.23346766  0.52074708  0.64747487    -0.22000
C1149       C  0.35394861  0.48335430  0.76599563    -0.23000
C1150       C  0.35369285  0.48400738  0.73135046    -0.23000
C1151       C  0.14803616  0.49471544  0.76875726    -0.23000
C1152       C  0.14756865  0.49241725  0.73424023    -0.23000
C1153       C  0.31376870  0.50257913  0.81011612    -0.18400
C1154       C  0.19125305  0.51158500  0.81092821    -0.18400
C1155       C  0.18947610  0.50395854  0.68905213    -0.18400
C1156       C  0.31236284  0.50347773  0.68850431    -0.18400
H1157       H  0.28814899  0.53148869  0.87136972     0.14500
H1158       H  0.22155936  0.53699875  0.87147758     0.14500
H1159       H  0.28431444  0.52864719  0.62666003     0.14500
H1160       H  0.21741694  0.52793876  0.62659054     0.14500
H1161       H  0.37499897  0.47585826  0.78169226     0.12800
H1162       H  0.37446223  0.47699597  0.71501156     0.12800
H1163       H  0.12684643  0.48978492  0.78538476     0.12800
H1164       H  0.12596964  0.48539814  0.71902076     0.12800
H1165       H  0.25110211  0.49253655  0.77873711     0.26100
H1166       H  0.25075679  0.48956078  0.72088942     0.26100
N1167       N  0.25099085  0.79986243  0.98757909    -0.36700
N1168       N  0.30401462  0.74810534  0.98568081    -0.57300
N1169       N  0.25223660  0.69689620  0.99076534    -0.36700
N1170       N  0.19947016  0.74831763  0.98954245    -0.57300
C1171       C  0.27853089  0.81900076  0.98073753     0.26900
C1172       C  0.22326104  0.81895676  0.98160186     0.26900
C1173       C  0.27944793  0.67781946  0.98313508     0.26900
C1174       C  0.22448402  0.67779344  0.98519591     0.26900
C1175       C  0.32294731  0.77578383  0.99215789     0.35500
C1176       C  0.32347587  0.72111820  0.99328325     0.35500
C1177       C  0.18009844  0.77555749  0.99616437     0.35500
C1178       C  0.18113874  0.72098826  0.99875610     0.35500
C1179       C  0.26829150  0.85083093  0.97038864    -0.22000
C1180       C  0.23343790  0.85075059  0.97075615    -0.22000
C1181       C  0.26889591  0.64626003  0.97225236    -0.22000
C1182       C  0.23411199  0.64620417  0.97365106    -0.22000
C1183       C  0.35474511  0.76632276  0.00337976    -0.23000
C1184       C  0.35506488  0.73166072  0.00409250    -0.23000
C1185       C  0.14922289  0.76542533  0.00942822    -0.23000
C1186       C  0.14983882  0.73081985  0.01093584    -0.23000
C1187       C  0.31248666  0.80947089  0.98678885    -0.18400
C1188       C  0.18929332  0.80928321  0.98856482    -0.18400
C1189       C  0.19105271  0.68723887  0.99326839    -0.18400
C1190       C  0.31332694  0.68709595  0.98943153    -0.18400
H1191       H  0.28427801  0.87216493  0.96404279     0.14500
H1192       H  0.21747376  0.87200650  0.96459938     0.14500
H1193       H  0.28465855  0.62511939  0.96523547     0.14500
H1194       H  0.21782021  0.62501848  0.96774954     0.14500
H1195       H  0.37548434  0.78269706  0.01054031     0.12800
H1196       H  0.37603659  0.71603388  0.01189961     0.12800
H1197       H  0.12831631  0.78125851  0.01698252     0.12800
H1198       H  0.12944156  0.71470182  0.01962504     0.12800
H1199       H  0.25142388  0.77673267  0.99985271     0.26100
H1200       H  0.25264297  0.71970991  0.00364844     0.26100
C1201       C  0.35915555  0.88983096  0.51886247    -0.20400
C1202       C  0.39036842  0.88524223  0.99156874    -0.07000
C1203       C  0.38835082  0.86334949  0.96348273     0.13900
C1204       C  0.36192719  0.83965117  0.96189107    -0.20500
C1205       C  0.33864660  0.83639905  0.98845890    -0.07000
C1206       C  0.33427149  0.86459840  0.52024277     0.13900
C1207       C  0.30717271  0.86668080  0.54700047    -0.23800
H1208       H  0.35835542  0.91041470  0.53664236     0.15200
H1209       H  0.35979692  0.82304998  0.94027325     0.15200
C1210       C  0.41378711  0.86499853  0.93523650    -0.23800
H1211       H  0.28191871  0.86938868  0.53529097     0.05400
H1212       H  0.29238265  0.85692531  0.04042017     0.08600
H1213       H  0.30755135  0.84356965  0.56285698     0.08600
H1214       H  0.41429712  0.89076872  0.92467027     0.08600
H1215       H  0.43923501  0.85594286  0.45737620     0.08600
H1216       H  0.43930419  0.85864306  0.94487161     0.05400
C1217       C  0.36925874  0.61224096  0.52656572    -0.20400
C1218       C  0.39015777  0.61055868  0.99740110    -0.07000
C1219       C  0.38876106  0.63187590  0.96882287     0.13900
C1220       C  0.36353147  0.65662392  0.96688756    -0.20500
C1221       C  0.33919220  0.65995562  0.99245113    -0.07000
C1222       C  0.34410085  0.63686488  0.52974510     0.13900
C1223       C  0.32213486  0.63705488  0.56086293    -0.23800
H1224       H  0.37240919  0.59356721  0.54634776     0.15200
H1225       H  0.36249892  0.67325480  0.94517080     0.15200
C1226       C  0.41304927  0.62758551  0.93974438    -0.23800
H1227       H  0.32959397  0.61703059  0.57901779     0.05400
H1228       H  0.28838221  0.63253940  0.03768028     0.08600
H1229       H  0.32442676  0.66179538  0.57377046     0.08600
H1230       H  0.41144636  0.60135820  0.92997286     0.08600
H1231       H  0.42219878  0.66025827  0.43886541     0.08600
H1232       H  0.40724724  0.64504714  0.91860281     0.05400
C1233       C  0.11047969  0.85950250  0.47710266    -0.20400
C1234       C  0.11258312  0.88653426  0.99909140    -0.07000
C1235       C  0.14235498  0.88703304  0.01882376     0.13900
C1236       C  0.16662922  0.86163012  0.01460810    -0.20500
C1237       C  0.16266165  0.83607244  0.99046387    -0.07000
C1238       C  0.13510963  0.83418309  0.47420175     0.13900
C1239       C  0.13312592  0.80947492  0.44538743    -0.23800
H1240       H  0.08976440  0.86032151  0.45925742     0.15200
H1241       H  0.18892789  0.86152888  0.03048037     0.15200
C1242       C  0.14802734  0.91326678  0.04554782    -0.23800
H1243       H  0.15647128  0.81131432  0.42988075     0.05400
H1244       H  0.14826057  0.79275952  0.93910599     0.08600
H1245       H  0.13036181  0.78332446  0.45497121     0.08600
H1246       H  0.17160632  0.90860779  0.05996135     0.08600
H1247       H  0.12053071  0.90981423  0.56815451     0.08600
H1248       H  0.15028530  0.93867650  0.03393917     0.05400
C1249       C  0.11540282  0.63191397  0.97285961    -0.20400
C1250       C  0.11500471  0.60964750  0.00025239    -0.07000
C1251       C  0.14049226  0.60757230  0.53050591     0.13900
C1252       C  0.16402250  0.63411551  0.53050001    -0.20500
C1253       C  0.16477110  0.66049090  0.99496813    -0.07000
C1254       C  0.13985737  0.65724726  0.96971143     0.13900
C1255       C  0.13850524  0.67959831  0.93887501    -0.23800
H1256       H  0.09700601  0.62881504  0.95319188     0.15200
H1257       H  0.18248033  0.63595171  0.55061508     0.15200
C1258       C  0.14123034  0.58200198  0.55863363    -0.23800
H1259       H  0.14018339  0.66379478  0.91582598     0.05400
H1260       H  0.15930714  0.69835327  0.93771322     0.08600
H1261       H  0.11414627  0.69344272  0.93855422     0.08600
H1262       H  0.14671202  0.55655203  0.54840305     0.08600
H1263       H  0.11639386  0.58163166  0.57145182     0.08600
H1264       H  0.16090344  0.58804582  0.57768779     0.05400
C1265       C  0.39280676  0.52227602  0.86162555    -0.20400
C1266       C  0.39095923  0.99728211  0.88736117    -0.07000
C1267       C  0.36461807  0.97303056  0.88611095     0.13900
C1268       C  0.33951869  0.97618180  0.86146705    -0.20500
C1269       C  0.34059461  0.50177038  0.83646146    -0.07000
C1270       C  0.36789304  0.52500587  0.83665334     0.13900
C1271       C  0.37117769  0.55345762  0.81150620    -0.23800
H1272       H  0.41367537  0.54011375  0.86175215     0.15200
H1273       H  0.31957661  0.95737123  0.86002724     0.15200
C1274       C  0.36240969  0.94320260  0.90970758    -0.23800
H1275       H  0.37258192  0.57783645  0.82519096     0.05400
H1276       H  0.34955233  0.55511044  0.79388728     0.08600
H1277       H  0.39466283  0.55017450  0.79648541     0.08600
H1278       H  0.33865499  0.94460431  0.92460963     0.08600
H1279       H  0.38383410  0.94177349  0.92750810     0.08600
H1280       H  0.36222803  0.91948787  0.89481188     0.05400
C1281       C  0.11495809  0.53092766  0.86644380    -0.20400
C1282       C  0.11453978  0.99951915  0.89327608    -0.07000
C1283       C  0.13997699  0.97459800  0.89120884     0.13900
C1284       C  0.16427347  0.97681044  0.86538276    -0.20500
C1285       C  0.16572481  0.51067680  0.83857675    -0.07000
C1286       C  0.13994161  0.53508749  0.84154565     0.13900
C1287       C  0.13937679  0.56602188  0.81935039    -0.23800
H1288       H  0.09474930  0.54923086  0.86847891     0.15200
H1289       H  0.18340108  0.95742771  0.86302775     0.15200
C1290       C  0.14113362  0.94532789  0.91556669    -0.23800
H1291       H  0.11816353  0.58306152  0.82604226     0.05400
H1292       H  0.13638111  0.55887623  0.79250208     0.08600
H1293       H  0.16337612  0.58031232  0.82242293     0.08600
H1294       H  0.11698775  0.93097672  0.91458192     0.08600
H1295       H  0.14525738  0.95469904  0.94161636     0.08600
H1296       H  0.16204474  0.92769032  0.90949848     0.05400
C1297       C  0.13674394  0.02933470  0.66590596    -0.20400
C1298       C  0.16255618  0.50260052  0.66288538    -0.07000
C1299       C  0.15830667  0.47400178  0.64209323     0.13900
C1300       C  0.13172125  0.47332961  0.61879238    -0.20500
C1301       C  0.10847454  0.49980010  0.61678513    -0.07000
C1302       C  0.11119974  0.02859012  0.64138107     0.13900
C1303       C  0.08449444  0.05562981  0.64167141    -0.23800
H1304       H  0.13671922  0.04889357  0.68499827     0.15200
H1305       H  0.12855035  0.45170865  0.60250194     0.15200
C1306       C  0.18106833  0.44377107  0.64520058    -0.23800
H1307       H  0.05929273  0.04426655  0.64661821     0.05400
H1308       H  0.08218834  0.56623096  0.61391121     0.08600
H1309       H  0.08929512  0.07474025  0.66158818     0.08600
H1310       H  0.17321993  0.42308161  0.62800133     0.08600
H1311       H  0.18959273  0.93890476  0.66546733     0.08600
H1312       H  0.20744973  0.45094072  0.63880864     0.05400
C1313       C  0.38794624  0.52681576  0.63366241    -0.20400
C1314       C  0.38696952  0.50082255  0.60972182    -0.07000
C1315       C  0.35782566  0.98375079  0.61371853     0.13900
C1316       C  0.33440827  0.98627316  0.64015551    -0.20500
C1317       C  0.33856182  0.50332478  0.66168038    -0.07000
C1318       C  0.36373535  0.52864286  0.65945395     0.13900
C1319       C  0.36464318  0.55795108  0.68362258    -0.23800
H1320       H  0.40748817  0.54600475  0.63184338     0.15200
H1321       H  0.31484881  0.96721712  0.64298618     0.15200
C1322       C  0.35546246  0.95438359  0.58989679    -0.23800
H1323       H  0.38538374  0.57582900  0.67736841     0.05400
H1324       H  0.38874251  0.06670554  0.69696503     0.08600
H1325       H  0.34038651  0.57189211  0.68240179     0.08600
H1326       H  0.37958031  0.94011952  0.59002977     0.08600
H1327       H  0.35478851  0.45716272  0.56137953     0.08600
H1328       H  0.33479643  0.93673371  0.59711200     0.05400
C1329       C  0.01767742  0.66049781  0.85720253    -0.20400
C1330       C  0.49771008  0.66028241  0.83861163    -0.07000
C1331       C  0.47240350  0.63515047  0.84116679     0.13900
C1332       C  0.47513807  0.61021386  0.86617709    -0.20500
C1333       C  0.50194658  0.61054511  0.88927208    -0.07000
C1334       C  0.02195034  0.63516651  0.88140457     0.13900
C1335       C  0.05445790  0.63358406  0.90067376    -0.23800
H1336       H  0.03806516  0.67819362  0.85215755     0.15200
H1337       H  0.45585618  0.59079504  0.86825066     0.15200
C1338       C  0.44204562  0.63523354  0.81827436    -0.23800
H1339       H  0.07272919  0.65331383  0.89239116     0.05400
H1340       H  0.06643209  0.60851684  0.89719422     0.08600
H1341       H  0.04865396  0.63780323  0.92769040     0.08600
H1342       H  0.44999212  0.63190072  0.79164669     0.08600
H1343       H  0.42840775  0.65953613  0.82086417     0.08600
H1344       H  0.42417215  0.61450512  0.82463839     0.05400
C1345       C  0.47443568  0.86102629  0.83943429    -0.20400
C1346       C  0.49859853  0.83520126  0.84038450    -0.07000
C1347       C  0.02835667  0.83964365  0.86363006     0.13900
C1348       C  0.02624222  0.86340293  0.88976949    -0.20500
C1349       C  0.49934267  0.88712505  0.88902199    -0.07000
C1350       C  0.47512691  0.88760245  0.86276545     0.13900
C1351       C  0.45035640  0.91619442  0.85872344    -0.23800
H1352       H  0.45563147  0.86091006  0.81956196     0.15200
H1353       H  0.04672683  0.86537302  0.90782350     0.15200
C1354       C  0.05951558  0.81796333  0.86166629    -0.23800
H1355       H  0.46412621  0.93958172  0.85155161     0.05400
H1356       H  0.43651007  0.92078372  0.88253764     0.08600
H1357       H  0.43144297  0.91085857  0.83872144     0.08600
H1358       H  0.05922708  0.80048692  0.83986023     0.08600
H1359       H  0.06178623  0.80273820  0.88509445     0.08600
H1360       H  0.08222178  0.83437058  0.85917950     0.05400
C1361       C  0.46743310  0.88571873  0.63744909    -0.20400
C1362       C  0.49533734  0.88740670  0.61557572    -0.07000
C1363       C  0.02897523  0.86815541  0.61950669     0.13900
C1364       C  0.02822132  0.84248997  0.64389351    -0.20500
C1365       C  0.49103133  0.83624853  0.66507411    -0.07000
C1366       C  0.46483988  0.86020861  0.66203588     0.13900
C1367       C  0.43399211  0.85849237  0.68431902    -0.23800
H1368       H  0.44733038  0.90406164  0.63484025     0.15200
H1369       H  0.04988809  0.82605686  0.64676956     0.15200
C1370       C  0.06094174  0.87264923  0.59911754    -0.23800
H1371       H  0.41567767  0.87877267  0.67818089     0.05400
H1372       H  0.44137787  0.86134304  0.71116120     0.08600
H1373       H  0.42111435  0.83378759  0.68088713     0.08600
H1374       H  0.06029559  0.89489457  0.58215870     0.08600
H1375       H  0.06537914  0.84983988  0.58353168     0.08600
H1376       H  0.08269389  0.87619408  0.61645407     0.05400
C1377       C  0.01898293  0.66363651  0.63785162    -0.20400
C1378       C  0.49436372  0.66113333  0.66334963    -0.07000
C1379       C  0.47288175  0.63244108  0.66382498     0.13900
C1380       C  0.47634141  0.60768583  0.63872476    -0.20500
C1381       C  0.50011608  0.61098687  0.61252697    -0.07000
C1382       C  0.02140934  0.63938689  0.61200303     0.13900
C1383       C  0.04903207  0.64298593  0.58593169    -0.23800
H1384       H  0.03723084  0.68409306  0.63890658     0.15200
H1385       H  0.45961661  0.58593481  0.63916804     0.15200
C1386       C  0.44546207  0.62742723  0.68984733    -0.23800
H1387       H  0.03783135  0.64685656  0.56057655     0.05400
H1388       H  0.06496098  0.62000781  0.58567097     0.08600
H1389       H  0.06568296  0.66499314  0.59119570     0.08600
H1390       H  0.42071003  0.62518254  0.67691715     0.08600
H1391       H  0.44341607  0.64862881  0.70788340     0.08600
H1392       H  0.45031287  0.60391477  0.70432374     0.05400
N1393       N  0.50326537  0.24963313  0.19965895    -0.36700
N1394       N  0.49897798  0.19697663  0.25025125    -0.57300
N1395       N  0.50362166  0.24728274  0.30256839    -0.36700
N1396       N  0.50685883  0.29980665  0.25210628    -0.57300
C1397       C  0.49218193  0.22321170  0.18108523     0.26900
C1398       C  0.49622589  0.27807807  0.18214981     0.26900
C1399       C  0.49319236  0.21990255  0.32020845     0.26900
C1400       C  0.49578628  0.27484394  0.32101649     0.26900
C1401       C  0.50482157  0.17825306  0.22247795     0.35500
C1402       C  0.50566589  0.17695891  0.27697678     0.35500
C1403       C  0.51417165  0.31948183  0.22528173     0.35500
C1404       C  0.51412612  0.31816870  0.27974274     0.35500
C1405       C  0.47806350  0.23497210  0.15132413    -0.22000
C1406       C  0.48064575  0.26967023  0.15198409    -0.22000
C1407       C  0.47856478  0.23008482  0.35029780    -0.22000
C1408       C  0.47992254  0.26488330  0.35067893    -0.22000
C1409       C  0.51546271  0.14619445  0.23154977    -0.23000
C1410       C  0.51585139  0.14532990  0.26621543    -0.23000
C1411       C  0.52661417  0.35046561  0.23581668    -0.23000
C1412       C  0.52669060  0.34959920  0.27048550    -0.23000
C1413       C  0.49692974  0.18881619  0.18942831    -0.18400
C1414       C  0.50544997  0.31114468  0.19191681    -0.18400
C1415       C  0.50520307  0.30834406  0.31276292    -0.18400
C1416       C  0.49926910  0.18614388  0.31068993    -0.18400
H1417       H  0.46734916  0.22007672  0.13109978     0.14500
H1418       H  0.47226730  0.28674778  0.13238578     0.14500
H1419       H  0.46832418  0.21411382  0.37003511     0.14500
H1420       H  0.47102179  0.28098143  0.37083916     0.14500
H1421       H  0.52142021  0.12536655  0.21496215     0.12800
H1422       H  0.52212439  0.12371442  0.28168649     0.12800
H1423       H  0.53359494  0.37184315  0.22021144     0.12800
H1424       H  0.53385961  0.37017935  0.28695190     0.12800
H1425       H  0.51833496  0.24809951  0.22110492     0.26100
H1426       H  0.51908620  0.24690237  0.28128107     0.26100
O1427       O  0.99455306  0.09666466  0.05288202    -0.86600
O1428       O  0.99931639  0.40354203  0.05519655    -0.86800
O1429       O  0.94080448  0.00236225  0.09736229    -0.88400
O1430       O  0.55182334  0.00200864  0.09975655    -0.87200
O1431       O  0.59561362  0.49711792  0.05878242    -0.86800
O1432       O  0.90296543  0.49716681  0.05204388    -0.88100
O1433       O  0.99665487  0.44487359  0.09577609    -0.86600
O1434       O  0.99212124  0.05746482  0.09557618    -0.86200
Zr1435     Zr  0.99884239  0.49908706  0.06725342     2.84300
O1436       O  0.53475023  0.46329982  0.03616251    -1.08200
O1437       O  0.96433231  0.03340343  0.03472762    -1.08900
C1438       C  0.99195538  0.08810124  0.08408764     1.06500
C1439       C  0.99755874  0.41381150  0.08614962     1.06500
C1440       C  0.90992639  0.00161172  0.08660859     1.09400
C1441       C  0.58332118  0.00230311  0.09100096     1.07200
H1442       H  0.95126926  0.44981562  0.04648388     0.32800
O1443       O  0.96583101  0.46394056  0.03285420    -1.29100
H1444       H  0.54654659  0.04761121  0.05116943     0.32500
O1445       O  0.53318945  0.03318984  0.03664492    -1.30800
O1446       O  0.99935431  0.40093261  0.44647674    -0.86600
O1447       O  0.00318792  0.09360577  0.44287463    -0.88100
O1448       O  0.90544179  0.44191927  0.49793577    -0.86700
O1449       O  0.59640985  0.44150563  0.50008901    -0.86700
O1450       O  0.59783448  0.05093330  0.50603092    -0.86400
O1451       O  0.90803747  0.05508194  0.49592205    -0.86200
O1452       O  0.94855412  0.49686455  0.40300101    -0.86600
O1453       O  0.55888715  0.50247360  0.40612003    -0.86100
O1454       O  0.90671312  0.49720719  0.44321834    -0.87100
O1455       O  0.59883373  0.49898507  0.44806114    -0.86300
O1456       O  0.94640639  0.40087646  0.49873871    -0.86700
O1457       O  0.94970410  0.09571515  0.49388263    -0.86400
O1458       O  0.55776410  0.09240135  0.50140209    -0.86100
O1459       O  0.55515980  0.40071021  0.49720908    -0.86500
O1460       O  0.99972165  0.44154060  0.40509484    -0.86800
O1461       O  0.00038283  0.05167935  0.40305140    -0.88100
Zr1462     Zr  0.00057592  0.42925317  0.50102985     2.83100
Zr1463     Zr  0.00395438  0.06713167  0.49857749     2.83500
Zr1464     Zr  0.93264101  0.49755913  0.49878271     2.84100
Zr1465     Zr  0.56946283  0.49685909  0.50171572     2.83400
Zr1466     Zr  0.00269803  0.49678314  0.43235755     2.84200
O1467       O  0.53698226  0.03133849  0.46857766    -1.08700
O1468       O  0.96745219  0.46313912  0.46590659    -1.08200
C1469       C  0.99837565  0.41056680  0.41533843     1.06500
C1470       C  0.00076288  0.08301809  0.41214590     1.09100
C1471       C  0.91549288  0.41089557  0.49756498     1.06700
C1472       C  0.58634669  0.41051016  0.49808179     1.09000
C1473       C  0.58858789  0.08206454  0.50381800     1.06600
C1474       C  0.91853439  0.08590263  0.49355059     1.06200
C1475       C  0.91725058  0.49677715  0.41238955     1.06600
C1476       C  0.58966409  0.50143299  0.41696293     1.06100
H1477       H  0.95577781  0.04570372  0.45071093     0.32800
O1478       O  0.96966241  0.03225437  0.46551359    -1.29800
H1479       H  0.55024683  0.45009434  0.45175269     0.32800
O1480       O  0.53602449  0.46395032  0.46590953    -1.31100
N1481       N  0.75198833  0.99840379  0.30569710    -0.36700
N1482       N  0.80142935  0.00021092  0.25276601    -0.57300
N1483       N  0.74738634  0.00382485  0.20357146    -0.36700
N1484       N  0.69778430  0.00332154  0.25608872    -0.57300
C1485       C  0.78050273  0.00412522  0.32361727     0.26900
C1486       C  0.72563974  0.00756514  0.32531367     0.26900
C1487       C  0.77435279  0.01415550  0.18521286     0.26900
C1488       C  0.71933715  0.01403855  0.18701786     0.26900
C1489       C  0.82154068  0.99080703  0.27856208     0.35500
C1490       C  0.81915529  0.99496507  0.22418245     0.35500
C1491       C  0.67970186  0.99648256  0.28411650     0.35500
C1492       C  0.67715020  0.99741291  0.22963133     0.35500
C1493       C  0.77220718  0.01693825  0.35507703    -0.22000
C1494       C  0.73749425  0.01917834  0.35613055    -0.22000
C1495       C  0.76335709  0.03144718  0.15686452    -0.22000
C1496       C  0.72852680  0.03132856  0.15798582    -0.22000
C1497       C  0.85227845  0.97934379  0.26638043    -0.23000
C1498       C  0.85072339  0.98186429  0.23177306    -0.23000
C1499       C  0.64729261  0.98613104  0.27553943    -0.23000
C1500       C  0.64572925  0.98653660  0.24086665    -0.23000
C1501       C  0.81355014  0.99616565  0.31281167    -0.18400
C1502       C  0.69123040  0.00276698  0.31714751    -0.18400
C1503       C  0.68591873  0.00486934  0.19591223    -0.18400
C1504       C  0.80828723  0.00545772  0.19194567    -0.18400
H1505       H  0.78934575  0.02364195  0.37526896     0.14500
H1506       H  0.72263401  0.02778623  0.37738162     0.14500
H1507       H  0.77883554  0.04235825  0.13708257     0.14500
H1508       H  0.71183191  0.04207669  0.13925186     0.14500
H1509       H  0.87383789  0.97103745  0.28094081     0.12800
H1510       H  0.87088538  0.97587554  0.21430379     0.12800
H1511       H  0.62675522  0.97971895  0.29250231     0.12800
H1512       H  0.62376347  0.98041535  0.22580011     0.12800
H1513       H  0.75034476  0.98518355  0.28310056     0.26100
H1514       H  0.74799364  0.98671352  0.22354432     0.26100
N1515       N  0.75147064  0.29877082  0.49189673    -0.36700
N1516       N  0.80394324  0.24723937  0.48906435    -0.57300
N1517       N  0.75233729  0.19561770  0.49112870    -0.36700
N1518       N  0.69979631  0.24719293  0.49069891    -0.57300
C1519       C  0.77895821  0.31777515  0.48483184     0.26900
C1520       C  0.72393249  0.31774685  0.48524901     0.26900
C1521       C  0.77974695  0.17657446  0.48406311     0.26900
C1522       C  0.72460958  0.17654639  0.48519231     0.26900
C1523       C  0.82297911  0.27459431  0.49629223     0.35500
C1524       C  0.82357664  0.22011691  0.49520158     0.35500
C1525       C  0.68109061  0.27433906  0.49928923     0.35500
C1526       C  0.68172550  0.21976587  0.50009066     0.35500
C1527       C  0.76887325  0.34940730  0.47374875    -0.22000
C1528       C  0.73402989  0.34935311  0.47391680    -0.22000
C1529       C  0.76937027  0.14479192  0.47367123    -0.22000
C1530       C  0.73451631  0.14482815  0.47416295    -0.22000
C1531       C  0.85493950  0.26485770  0.50671621    -0.23000
C1532       C  0.85533854  0.23025868  0.50594868    -0.23000
C1533       C  0.65091660  0.26420912  0.51393388    -0.23000
C1534       C  0.65138504  0.22954884  0.51462122    -0.23000
C1535       C  0.81266487  0.30824380  0.49135886    -0.18400
C1536       C  0.69023694  0.30803173  0.49215240    -0.18400
C1537       C  0.69099685  0.18610744  0.49291494    -0.18400
C1538       C  0.81369500  0.18638754  0.48959870    -0.18400
H1539       H  0.78494901  0.37054045  0.46697264     0.14500
H1540       H  0.71799902  0.37042608  0.46730688     0.14500
H1541       H  0.78524887  0.12357457  0.46716633     0.14500
H1542       H  0.71837576  0.12358324  0.46806979     0.14500
H1543       H  0.87585411  0.28100529  0.51387947     0.12800
H1544       H  0.87655800  0.21439557  0.51251938     0.12800
H1545       H  0.63077848  0.28013990  0.52320069     0.12800
H1546       H  0.63151945  0.21337086  0.52435829     0.12800
H1547       H  0.75165886  0.27594615  0.50482176     0.26100
H1548       H  0.75251060  0.21862061  0.50360894     0.26100
C1549       C  0.86346936  0.38416485  0.01450910    -0.20400
C1550       C  0.88951390  0.38454309  0.49536940    -0.07000
C1551       C  0.88602473  0.36400535  0.46643731     0.13900
C1552       C  0.86051748  0.33944876  0.46581149    -0.20500
C1553       C  0.83868702  0.33497465  0.49334978    -0.07000
C1554       C  0.83767197  0.35988441  0.01294133     0.13900
C1555       C  0.81138381  0.35851992  0.04051593    -0.23800
H1556       H  0.86395457  0.40184925  0.03520039     0.15200
H1557       H  0.85753533  0.32368674  0.44365915     0.15200
C1558       C  0.90834823  0.36747733  0.43572739    -0.23800
H1559       H  0.78595250  0.36341841  0.02987082     0.05400
H1560       H  0.83717943  0.34435565  0.57555244     0.08600
H1561       H  0.81152966  0.33324347  0.05266091     0.08600
H1562       H  0.92699080  0.38826676  0.43785835     0.08600
H1563       H  0.92926534  0.33866494  0.93548131     0.08600
H1564       H  0.92238402  0.34361674  0.43162239     0.05400
C1565       C  0.86866786  0.11744760  0.02661091    -0.20400
C1566       C  0.89239972  0.11200216  0.49150946    -0.07000
C1567       C  0.88753539  0.13196127  0.46233941     0.13900
C1568       C  0.86133966  0.15584019  0.46209327    -0.20500
C1569       C  0.84028334  0.16004007  0.49035003    -0.07000
C1570       C  0.84445962  0.14322128  0.02607591     0.13900
C1571       C  0.82570143  0.15211817  0.05794023    -0.23800
H1572       H  0.87338119  0.10365385  0.04977847     0.15200
H1573       H  0.85723843  0.17133335  0.43991211     0.15200
C1574       C  0.90930866  0.12752897  0.43139040    -0.23800
H1575       H  0.83377131  0.13622361  0.07956877     0.05400
H1576       H  0.79778834  0.14058980  0.54553441     0.08600
H1577       H  0.83065903  0.17893010  0.06447531     0.08600
H1578       H  0.90716702  0.10118289  0.42208599     0.08600
H1579       H  0.92890899  0.12342527  0.94002531     0.08600
H1580       H  0.90160246  0.14475371  0.41064856     0.05400
C1581       C  0.61178278  0.36270126  0.96856543    -0.20400
C1582       C  0.61282019  0.38426281  0.49674548    -0.07000
C1583       C  0.63724214  0.38131135  0.52254210     0.13900
C1584       C  0.66199867  0.35614920  0.52038458    -0.20500
C1585       C  0.66349411  0.33435363  0.49263530    -0.07000
C1586       C  0.63623297  0.33742808  0.96416026     0.13900
C1587       C  0.63316351  0.31335755  0.93494151    -0.23800
H1588       H  0.59077274  0.36441023  0.95111586     0.15200
H1589       H  0.68045015  0.35348338  0.54039829     0.15200
C1590       C  0.63698341  0.40438274  0.55264599    -0.23800
H1591       H  0.62997573  0.28712451  0.94424749     0.05400
H1592       H  0.66241216  0.29879456  0.43437338     0.08600
H1593       H  0.61106670  0.31944925  0.91887293     0.08600
H1594       H  0.65676533  0.39751614  0.57125304     0.08600
H1595       H  0.62267501  0.40742352  0.06254737     0.08600
H1596       H  0.64185905  0.43071925  0.54437739     0.05400
C1597       C  0.61103413  0.13432060  0.47864217    -0.20400
C1598       C  0.61516375  0.10827119  0.50224500    -0.07000
C1599       C  0.63669722  0.11482478  0.03247553     0.13900
C1600       C  0.66238074  0.13919290  0.02914868    -0.20500
C1601       C  0.66453490  0.15938916  0.49509590    -0.07000
C1602       C  0.63555511  0.15942599  0.47418774     0.13900
C1603       C  0.62975939  0.18496375  0.44652350    -0.23800
H1604       H  0.58871181  0.13463048  0.46287032     0.15200
H1605       H  0.68146104  0.14146976  0.04863723     0.15200
C1606       C  0.63617072  0.09326295  0.06388418    -0.23800
H1607       H  0.62686291  0.17168675  0.42206403     0.05400
H1608       H  0.65085806  0.20312892  0.44345875     0.08600
H1609       H  0.60628101  0.19930878  0.45187462     0.08600
H1610       H  0.65944948  0.07773930  0.06496409     0.08600
H1611       H  0.61395282  0.07618635  0.06519677     0.08600
H1612       H  0.63527857  0.10976579  0.08649693     0.05400
C1613       C  0.89038065  0.02020055  0.36517609    -0.20400
C1614       C  0.89126536  0.49693689  0.38571505    -0.07000
C1615       C  0.86266656  0.47540648  0.38700030     0.13900
C1616       C  0.83841613  0.47733962  0.36132691    -0.20500
C1617       C  0.84112022  0.99538824  0.33825298    -0.07000
C1618       C  0.86485083  0.02196552  0.34075300     0.13900
C1619       C  0.86234306  0.05285657  0.31869351    -0.23800
H1620       H  0.90858240  0.04059964  0.36726964     0.15200
H1621       H  0.81665791  0.46061403  0.36191334     0.15200
C1622       C  0.85786394  0.44990420  0.41492451    -0.23800
H1623       H  0.88200606  0.07181240  0.32510350     0.05400
H1624       H  0.83723627  0.06480963  0.32221094     0.08600
H1625       H  0.86561553  0.04591405  0.29179349     0.08600
H1626       H  0.85379591  0.46293959  0.43933871     0.08600
H1627       H  0.88050703  0.43361653  0.41674678     0.08600
H1628       H  0.83555836  0.43341225  0.41042971     0.05400
C1629       C  0.61888949  0.02883707  0.37419626    -0.20400
C1630       C  0.61673257  0.50301158  0.39165464    -0.07000
C1631       C  0.63982964  0.47621867  0.38769078     0.13900
C1632       C  0.66486756  0.47860992  0.36273506    -0.20500
C1633       C  0.66612782  0.00346382  0.34480162    -0.07000
C1634       C  0.64327674  0.03048222  0.34858178     0.13900
C1635       C  0.64474990  0.06097572  0.32580837    -0.23800
H1636       H  0.60087676  0.04917482  0.37711509     0.15200
H1637       H  0.68237137  0.45795213  0.35903673     0.15200
C1638       C  0.63711030  0.44449290  0.40865049    -0.23800
H1639       H  0.62554910  0.08007196  0.33292067     0.05400
H1640       H  0.63989393  0.05350746  0.29929442     0.08600
H1641       H  0.67010905  0.07295894  0.32751217     0.08600
H1642       H  0.61168458  0.43296462  0.40536397     0.08600
H1643       H  0.64108717  0.45043301  0.43570792     0.08600
H1644       H  0.65628232  0.42550575  0.40114879     0.05400
C1645       C  0.63394376  0.52436910  0.16797002    -0.20400
C1646       C  0.65947072  0.00386619  0.16904612    -0.07000
C1647       C  0.66215089  0.98207489  0.14089913     0.13900
C1648       C  0.63743762  0.98319600  0.11568750    -0.20500
C1649       C  0.60904956  0.00405424  0.11824411    -0.07000
C1650       C  0.60808491  0.52354068  0.14376373     0.13900
C1651       C  0.57917677  0.54809145  0.14695069    -0.23800
H1652       H  0.63286067  0.54250748  0.18839309     0.15200
H1653       H  0.63999272  0.96691072  0.09410425     0.15200
C1654       C  0.69021059  0.95670578  0.13673346    -0.23800
H1655       H  0.55512884  0.53421626  0.15122213     0.05400
H1656       H  0.57646799  0.06695925  0.12660978     0.08600
H1657       H  0.58271993  0.56553371  0.16858622     0.08600
H1658       H  0.67913646  0.93116364  0.13317728     0.08600
H1659       H  0.68620248  0.43363434  0.11768514     0.08600
H1660       H  0.70550190  0.96326645  0.11410479     0.05400
C1661       C  0.88477039  0.02789136  0.13771628    -0.20400
C1662       C  0.88255696  0.00337521  0.11225537    -0.07000
C1663       C  0.85686293  0.47856874  0.10937512     0.13900
C1664       C  0.83234495  0.48164587  0.13486731    -0.20500
C1665       C  0.83324426  0.00660590  0.16384644    -0.07000
C1666       C  0.85998026  0.03030352  0.16303990     0.13900
C1667       C  0.86172981  0.05872298  0.18818149    -0.23800
H1668       H  0.90573970  0.04555139  0.13747987     0.15200
H1669       H  0.81095695  0.46444845  0.13544565     0.15200
C1670       C  0.85322733  0.45073249  0.08386292    -0.23800
H1671       H  0.88352859  0.07566656  0.18306027     0.05400
H1672       H  0.89176624  0.55221578  0.19968374     0.08600
H1673       H  0.83827650  0.07396447  0.18665478     0.08600
H1674       H  0.87590633  0.43432851  0.08480717     0.08600
H1675       H  0.84732724  0.96609137  0.06030351     0.08600
H1676       H  0.83065404  0.43474302  0.08896900     0.05400
C1677       C  0.53038069  0.15195137  0.35274656    -0.20400
C1678       C  0.98835910  0.15743851  0.33367453    -0.07000
C1679       C  0.96459791  0.13093621  0.33763744     0.13900
C1680       C  0.96970445  0.10661934  0.36299554    -0.20500
C1681       C  0.99719007  0.10886310  0.38531141    -0.07000
C1682       C  0.53263140  0.12640382  0.37715556     0.13900
C1683       C  0.56677517  0.11940433  0.39226554    -0.23800
H1684       H  0.55288905  0.16602886  0.34569937     0.15200
H1685       H  0.95154275  0.08627775  0.36598596     0.15200
C1686       C  0.93319717  0.12814998  0.31634825    -0.23800
H1687       H  0.58478608  0.11248121  0.37193337     0.05400
H1688       H  0.56639300  0.09860176  0.41101047     0.08600
H1689       H  0.57610948  0.14257793  0.40483616     0.08600
H1690       H  0.93343780  0.10387986  0.30239833     0.08600
H1691       H  0.93076928  0.14890993  0.29775913     0.08600
H1692       H  0.91056454  0.12887426  0.33295580     0.05400
C1693       C  0.96879742  0.35840651  0.34036743    -0.20400
C1694       C  0.99095266  0.33088313  0.34194180    -0.07000
C1695       C  0.52730531  0.33556075  0.36596448     0.13900
C1696       C  0.52503142  0.36116030  0.39016962    -0.20500
C1697       C  0.99538396  0.38373297  0.38954267    -0.07000
C1698       C  0.97116973  0.38522286  0.36331388     0.13900
C1699       C  0.94765064  0.41483210  0.35932983    -0.23800
H1700       H  0.95038681  0.35945105  0.32015652     0.15200
H1701       H  0.54260730  0.36150203  0.41112658     0.15200
C1702       C  0.55579975  0.31051835  0.36801067    -0.23800
H1703       H  0.96237520  0.43795998  0.35329151     0.05400
H1704       H  0.93311923  0.41881322  0.38293016     0.08600
H1705       H  0.92927781  0.41083971  0.33853110     0.08600
H1706       H  0.57119966  0.31187545  0.34457757     0.08600
H1707       H  0.54569637  0.28456405  0.37109952     0.08600
H1708       H  0.57272624  0.31585494  0.38968382     0.05400
C1709       C  0.96999273  0.38831284  0.13640711    -0.20400
C1710       C  0.99674984  0.38807539  0.11305739    -0.07000
C1711       C  0.53143984  0.36537921  0.11768393     0.13900
C1712       C  0.53160567  0.34106913  0.14343433    -0.20500
C1713       C  0.99495631  0.34114730  0.16664203    -0.07000
C1714       C  0.96856272  0.36479133  0.16295374     0.13900
C1715       C  0.93852320  0.36456826  0.18640600    -0.23800
H1716       H  0.94988745  0.40661491  0.13348889     0.15200
H1717       H  0.55283369  0.32401912  0.14585540     0.15200
C1718       C  0.56163967  0.36862354  0.09465918    -0.23800
H1719       H  0.91953563  0.38380495  0.17907766     0.05400
H1720       H  0.94680396  0.37011437  0.21255304     0.08600
H1721       H  0.92603991  0.33942432  0.18582068     0.08600
H1722       H  0.57215605  0.39458110  0.09646404     0.08600
H1723       H  0.55414431  0.36348846  0.06819174     0.08600
H1724       H  0.58193617  0.35059779  0.10154771     0.05400
C1725       C  0.51875993  0.16426797  0.13626744    -0.20400
C1726       C  0.98235938  0.16687356  0.15744374    -0.07000
C1727       C  0.95787879  0.14079711  0.15566244     0.13900
C1728       C  0.96169925  0.11525236  0.13153454    -0.20500
C1729       C  0.98860500  0.11590443  0.10844764    -0.07000
C1730       C  0.52003133  0.13936031  0.11121707     0.13900
C1731       C  0.54730710  0.14148254  0.08461453    -0.23800
H1732       H  0.53708548  0.18468814  0.13597328     0.15200
H1733       H  0.94338209  0.09486682  0.13052125     0.15200
C1734       C  0.92766060  0.13915709  0.17884258    -0.23800
H1735       H  0.53588203  0.14494087  0.05931256     0.05400
H1736       H  0.56262185  0.11805971  0.08487918     0.08600
H1737       H  0.56465036  0.16314522  0.08899000     0.08600
H1738       H  0.92583429  0.16128006  0.19581091     0.08600
H1739       H  0.92915367  0.11603489  0.19460858     0.08600
H1740       H  0.90413409  0.13827215  0.16360454     0.05400
N1741       N  0.49257115  0.24815094  0.69890245    -0.36700
N1742       N  0.49189005  0.19642430  0.75038275    -0.57300
N1743       N  0.49005262  0.24820763  0.80124457    -0.36700
N1744       N  0.48882680  0.30001475  0.75010613    -0.57300
C1745       C  0.48567359  0.22021647  0.68059391     0.26900
C1746       C  0.48288232  0.27504788  0.68027883     0.26900
C1747       C  0.48026637  0.22074220  0.81909154     0.26900
C1748       C  0.48103027  0.27563681  0.81925852     0.26900
C1749       C  0.50093246  0.17763684  0.72355974     0.35500
C1750       C  0.49825771  0.17764368  0.77801421     0.35500
C1751       C  0.49432236  0.31951521  0.72264284     0.35500
C1752       C  0.49570104  0.31939358  0.77727972     0.35500
C1753       C  0.47144573  0.22941128  0.64999546    -0.22000
C1754       C  0.46972676  0.26410977  0.64978346    -0.22000
C1755       C  0.46429657  0.23080659  0.84855760    -0.22000
C1756       C  0.46481856  0.26561075  0.84868289    -0.22000
C1757       C  0.51327822  0.14667077  0.73409810    -0.23000
C1758       C  0.51169511  0.14672020  0.76880991    -0.23000
C1759       C  0.50436049  0.35159841  0.73233357    -0.23000
C1760       C  0.50553001  0.35144661  0.76701314    -0.23000
C1761       C  0.49420641  0.18693865  0.68994062    -0.18400
C1762       C  0.48815231  0.30916489  0.68913864    -0.18400
C1763       C  0.49018780  0.30911225  0.81103866    -0.18400
C1764       C  0.48880913  0.18718755  0.81091122    -0.18400
H1765       H  0.46351770  0.21285613  0.62977693     0.14500
H1766       H  0.46023337  0.27956711  0.62937452     0.14500
H1767       H  0.45416977  0.21472825  0.86827456     0.14500
H1768       H  0.45515273  0.28171172  0.86848743     0.14500
H1769       H  0.52166359  0.12598202  0.71840735     0.12800
H1770       H  0.51866865  0.12608893  0.78529841     0.12800
H1771       H  0.50995417  0.37293423  0.71614011     0.12800
H1772       H  0.51213402  0.37272312  0.78279260     0.12800
H1773       H  0.50687695  0.24896203  0.72090386     0.26100
H1774       H  0.50630002  0.24829910  0.78053482     0.26100
O1775       O  0.00250268  0.09704087  0.55229027    -0.86600
O1776       O  0.99876457  0.40169056  0.55570787    -0.86800
O1777       O  0.94591670  0.00534084  0.59727409    -0.88400
O1778       O  0.55051784  0.00220782  0.60068038    -0.87200
O1779       O  0.59608587  0.49714071  0.55714733    -0.86800
O1780       O  0.90170803  0.49861938  0.55176344    -0.88100
O1781       O  0.99536781  0.44247002  0.59675559    -0.86600
O1782       O  0.00028850  0.05682431  0.59418101    -0.86200
Zr1783     Zr  0.99774816  0.49789855  0.56919469     2.84300
O1784       O  0.53461761  0.46291897  0.53543143    -1.08200
O1785       O  0.96826558  0.03484561  0.53346467    -1.08900
C1786       C  0.00092813  0.08760193  0.58347866     1.06500
C1787       C  0.99664141  0.41142730  0.58666978     1.06500
C1788       C  0.91505571  0.00534830  0.58671665     1.09400
C1789       C  0.58197978  0.00125371  0.59191609     1.07200
H1790       H  0.95025056  0.44934934  0.54772045     0.32800
O1791       O  0.96505984  0.46328921  0.53413036    -1.29100
H1792       H  0.54701873  0.04692605  0.55115831     0.32500
O1793       O  0.53338304  0.03265733  0.53687013    -1.30800
O1794       O  0.00068728  0.40232666  0.94434722    -0.86600
O1795       O  0.99870177  0.09444856  0.94604761    -0.88100
O1796       O  0.90544675  0.44265947  0.99540421    -0.86700
O1797       O  0.59768196  0.44322160  0.00041266    -0.86700
O1798       O  0.59624996  0.05472112  0.00696869    -0.86400
O1799       O  0.90308431  0.05254379  0.00111550    -0.86200
O1800       O  0.94808240  0.49755829  0.90221406    -0.86600
O1801       O  0.55790722  0.50079251  0.90647346    -0.86100
O1802       O  0.90626288  0.49693795  0.94260493    -0.87100
O1803       O  0.59806136  0.50082659  0.94839654    -0.86300
O1804       O  0.94658911  0.40186105  0.99513041    -0.86700
O1805       O  0.94446767  0.09344945  0.99886959    -0.86400
O1806       O  0.55494511  0.09521381  0.00353813    -0.86100
O1807       O  0.55671788  0.40203409  0.99821427    -0.86500
O1808       O  0.00037671  0.44355943  0.90352328    -0.86800
O1809       O  0.99722902  0.05315412  0.90555228    -0.88100
Zr1810     Zr  0.00116778  0.43024541  0.99935768     2.83100
Zr1811     Zr  0.99964086  0.06645674  0.00051689     2.83500
Zr1812     Zr  0.93269752  0.49799301  0.99804388     2.84100
Zr1813     Zr  0.56951347  0.49772958  0.00279862     2.83400
Zr1814     Zr  0.00245951  0.49882869  0.93094201     2.84200
O1815       O  0.53643586  0.03358550  0.96784815    -1.08700
O1816       O  0.96799078  0.46456519  0.96475121    -1.08200
C1817       C  0.99954004  0.41240344  0.91330519     1.06500
C1818       C  0.99693533  0.08437663  0.91519751     1.09100
C1819       C  0.91553394  0.41172016  0.99373769     1.06700
C1820       C  0.58783793  0.41217943  0.99836950     1.09000
C1821       C  0.58596525  0.08561438  0.00628225     1.06600
C1822       C  0.91336935  0.08346784  0.99954521     1.06200
C1823       C  0.91685070  0.49675532  0.91176227     1.06600
C1824       C  0.58869363  0.50157486  0.91721459     1.06100
H1825       H  0.95140439  0.04559014  0.95284196     0.32800
O1826       O  0.96547549  0.03186637  0.96719360    -1.29800
H1827       H  0.55037410  0.45026015  0.95321531     0.32800
O1828       O  0.53612573  0.46392499  0.96745302    -1.31100
N1829       N  0.75162545  0.99762085  0.80319513    -0.36700
N1830       N  0.80190838  0.99690299  0.75057889    -0.57300
N1831       N  0.74914154  0.00126500  0.70049340    -0.36700
N1832       N  0.69859437  0.00306165  0.75326477    -0.57300
C1833       C  0.78001836  0.00500541  0.82060795     0.26900
C1834       C  0.72527380  0.00828517  0.82203374     0.26900
C1835       C  0.77659135  0.00925702  0.68156172     0.26900
C1836       C  0.72139982  0.01072415  0.68296575     0.26900
C1837       C  0.82152511  0.98853985  0.77709206     0.35500
C1838       C  0.82056897  0.99168924  0.72258918     0.35500
C1839       C  0.67978229  0.99692039  0.78104915     0.35500
C1840       C  0.67814559  0.99783850  0.72657685     0.35500
C1841       C  0.77162561  0.02070636  0.85072077    -0.22000
C1842       C  0.73693354  0.02267660  0.85166033    -0.22000
C1843       C  0.76610985  0.02382045  0.65150844    -0.22000
C1844       C  0.73125024  0.02463860  0.65235019    -0.22000
C1845       C  0.85277643  0.97739504  0.76594215    -0.23000
C1846       C  0.85221802  0.97952340  0.73128454    -0.23000
C1847       C  0.64715167  0.98786168  0.77210845    -0.23000
C1848       C  0.64612488  0.98831018  0.73746561    -0.23000
C1849       C  0.81304609  0.99589564  0.81086496    -0.18400
C1850       C  0.69103150  0.00278696  0.81418962    -0.18400
C1851       C  0.68750933  0.00423801  0.69279215    -0.18400
C1852       C  0.81060866  0.00170423  0.68989782    -0.18400
H1853       H  0.78870936  0.02949573  0.87014610     0.14500
H1854       H  0.72196208  0.03321303  0.87193009     0.14500
H1855       H  0.78191057  0.03247060  0.63088497     0.14500
H1856       H  0.71497683  0.03397749  0.63251548     0.14500
H1857       H  0.87419972  0.97006083  0.78120641     0.12800
H1858       H  0.87307357  0.97392642  0.71450592     0.12800
H1859       H  0.62615844  0.98227213  0.78879588     0.12800
H1860       H  0.62414422  0.98291088  0.72214543     0.12800
H1861       H  0.75009030  0.98244560  0.78181388     0.26100
H1862       H  0.74906441  0.98644477  0.72217397     0.26100
N1863       N  0.75058468  0.29880554  0.98546539    -0.36700
N1864       N  0.80302988  0.24809319  0.98812011    -0.57300
N1865       N  0.75137353  0.19677060  0.99713050    -0.36700
N1866       N  0.69906706  0.24767261  0.99191905    -0.57300
C1867       C  0.77799090  0.31719921  0.97642143     0.26900
C1868       C  0.72286061  0.31671148  0.97678371     0.26900
C1869       C  0.77849920  0.17780048  0.98901066     0.26900
C1870       C  0.72358821  0.17753593  0.99199410     0.26900
C1871       C  0.82225039  0.27595302  0.99246947     0.35500
C1872       C  0.82262219  0.22156145  0.99650292     0.35500
C1873       C  0.67969885  0.27534245  0.99590818     0.35500
C1874       C  0.68059554  0.22132413  0.00329520     0.35500
C1875       C  0.76764665  0.34712879  0.96155281    -0.22000
C1876       C  0.73277666  0.34680157  0.96174323    -0.22000
C1877       C  0.76788668  0.14608140  0.97864250    -0.22000
C1878       C  0.73310185  0.14593402  0.98046685    -0.22000
C1879       C  0.85430729  0.26704137  0.00340557    -0.23000
C1880       C  0.85459263  0.23245861  0.00575149    -0.23000
C1881       C  0.64866353  0.26653183  0.00973549    -0.23000
C1882       C  0.64921631  0.23219561  0.01437130    -0.23000
C1883       C  0.81178033  0.30906501  0.98463068    -0.18400
C1884       C  0.68919125  0.30809564  0.98548760    -0.18400
C1885       C  0.69017069  0.18732222  0.99958453    -0.18400
C1886       C  0.81248302  0.18759330  0.99369722    -0.18400
H1887       H  0.78358202  0.36747782  0.95244750     0.14500
H1888       H  0.71656857  0.36685123  0.95278829     0.14500
H1889       H  0.78359821  0.12511620  0.97101876     0.14500
H1890       H  0.71671692  0.12486423  0.97440991     0.14500
H1891       H  0.87540702  0.28364922  0.00875332     0.12800
H1892       H  0.87587110  0.21709724  0.01326323     0.12800
H1893       H  0.62763713  0.28300776  0.01534460     0.12800
H1894       H  0.62861673  0.21686950  0.02398121     0.12800
H1895       H  0.75093725  0.27778369  0.00116620     0.26100
H1896       H  0.75195295  0.21992749  0.00946328     0.26100
C1897       C  0.86818649  0.37944878  0.52315186    -0.20400
C1898       C  0.88917200  0.38552910  0.99015486    -0.07000
C1899       C  0.88884172  0.36217502  0.96311290     0.13900
C1900       C  0.86295116  0.33790892  0.96152384    -0.20500
C1901       C  0.83736126  0.33659080  0.98604844    -0.07000
C1902       C  0.84269571  0.35491273  0.52256845     0.13900
C1903       C  0.82095186  0.35066703  0.55361209    -0.23800
H1904       H  0.87184233  0.39425786  0.54568437     0.15200
H1905       H  0.86271321  0.31979606  0.94104031     0.15200
C1906       C  0.91466052  0.36253624  0.93507376    -0.23800
H1907       H  0.80753360  0.37465438  0.55889032     0.05400
H1908       H  0.81623871  0.37769741  0.06033624     0.08600
H1909       H  0.80174794  0.33039642  0.55109834     0.08600
H1910       H  0.90160033  0.36468074  0.91038863     0.08600
H1911       H  0.89249962  0.37251859  0.41319469     0.08600
H1912       H  0.93260302  0.38391903  0.93679121     0.05400
C1913       C  0.87139234  0.11627549  0.51961149    -0.20400
C1914       C  0.88747128  0.10976410  0.99764441    -0.07000
C1915       C  0.88197355  0.12780972  0.96742131     0.13900
C1916       C  0.85748335  0.15329035  0.96679748    -0.20500
C1917       C  0.83858026  0.16093271  0.99572112    -0.07000
C1918       C  0.84567100  0.14041215  0.51956870     0.13900
C1919       C  0.82485859  0.14553947  0.55098797    -0.23800
H1920       H  0.87552290  0.10093783  0.54191144     0.15200
H1921       H  0.85283734  0.16716523  0.94367875     0.15200
C1922       C  0.90144008  0.11963570  0.93572794    -0.23800
H1923       H  0.83275598  0.12833514  0.57166595     0.05400
H1924       H  0.79813176  0.14838567  0.05423721     0.08600
H1925       H  0.82790661  0.17190747  0.55996045     0.08600
H1926       H  0.89676679  0.09295460  0.92847925     0.08600
H1927       H  0.93612109  0.13303713  0.43758005     0.08600
H1928       H  0.89383975  0.13599799  0.91427913     0.05400
C1929       C  0.61417630  0.36233156  0.46897344    -0.20400
C1930       C  0.61430293  0.38616122  0.99499363    -0.07000
C1931       C  0.64198362  0.38438722  0.01742569     0.13900
C1932       C  0.66610715  0.35891811  0.01324958    -0.20500
C1933       C  0.66350997  0.33538874  0.98704622    -0.07000
C1934       C  0.63964493  0.33780223  0.46627681     0.13900
C1935       C  0.64090553  0.31663686  0.43472691    -0.23800
H1936       H  0.59584859  0.36496656  0.44883476     0.15200
H1937       H  0.68702288  0.35701871  0.03078992     0.15200
C1938       C  0.64565557  0.40849838  0.04649665    -0.23800
H1939       H  0.61717663  0.30178975  0.43247173     0.05400
H1940       H  0.65623719  0.31491515  0.91901533     0.08600
H1941       H  0.64348480  0.33338637  0.41235625     0.08600
H1942       H  0.66775283  0.40221693  0.06254478     0.08600
H1943       H  0.61208790  0.40297503  0.56545754     0.08600
H1944       H  0.64938261  0.43456720  0.03690560     0.05400
C1945       C  0.61246576  0.13484910  0.97982928    -0.20400
C1946       C  0.61186311  0.11228062  0.00696117    -0.07000
C1947       C  0.64407008  0.10812732  0.52319721     0.13900
C1948       C  0.66819141  0.13396521  0.51956678    -0.20500
C1949       C  0.66338305  0.16112062  0.00126345    -0.07000
C1950       C  0.63807357  0.15888788  0.97625631     0.13900
C1951       C  0.63759183  0.18083310  0.94510268    -0.23800
H1952       H  0.59349058  0.13275474  0.96045625     0.15200
H1953       H  0.69017730  0.13437309  0.53586186     0.15200
C1954       C  0.64913109  0.08167112  0.55009830    -0.23800
H1955       H  0.63696783  0.16461466  0.92228398     0.05400
H1956       H  0.66002716  0.19748947  0.94281314     0.08600
H1957       H  0.61460564  0.19683587  0.94540592     0.08600
H1958       H  0.65292879  0.05659844  0.53829907     0.08600
H1959       H  0.62674180  0.08072372  0.56703705     0.08600
H1960       H  0.67170516  0.08716933  0.56583498     0.05400
C1961       C  0.89115420  0.01915035  0.86193935    -0.20400
C1962       C  0.89099382  0.49694466  0.88516958    -0.07000
C1963       C  0.86601288  0.47142282  0.88239584     0.13900
C1964       C  0.84107103  0.47437079  0.85746954    -0.20500
C1965       C  0.83993950  0.99629501  0.83699071    -0.07000
C1966       C  0.86641082  0.02040047  0.83670685     0.13900
C1967       C  0.86854487  0.04859739  0.81114657    -0.23800
H1968       H  0.91175051  0.03726758  0.86142752     0.15200
H1969       H  0.82201457  0.45478314  0.85500466     0.15200
C1970       C  0.86509948  0.44058435  0.90476482    -0.23800
H1971       H  0.86946963  0.07319372  0.82450475     0.05400
H1972       H  0.84658164  0.04945554  0.79387566     0.08600
H1973       H  0.89187168  0.04579115  0.79581052     0.08600
H1974       H  0.84119701  0.44025473  0.91950360     0.08600
H1975       H  0.88651056  0.43940145  0.92268143     0.08600
H1976       H  0.86610883  0.41752879  0.88891009     0.05400
C1977       C  0.62024744  0.03016683  0.87271357    -0.20400
C1978       C  0.61545280  0.50362704  0.89161188    -0.07000
C1979       C  0.63947954  0.47765548  0.88784878     0.13900
C1980       C  0.66414942  0.48055041  0.86259280    -0.20500
C1981       C  0.66591747  0.00343446  0.84194326    -0.07000
C1982       C  0.64495540  0.03163743  0.84732948     0.13900
C1983       C  0.64905264  0.06332092  0.82662741    -0.23800
H1984       H  0.60365081  0.05151079  0.87672293     0.15200
H1985       H  0.68238462  0.46050110  0.85905559     0.15200
C1986       C  0.63836596  0.44639788  0.90960399    -0.23800
H1987       H  0.63120628  0.08330419  0.83476661     0.05400
H1988       H  0.64422054  0.05783846  0.79961296     0.08600
H1989       H  0.67519025  0.07324575  0.82946426     0.08600
H1990       H  0.61342737  0.43370718  0.90693138     0.08600
H1991       H  0.64237067  0.45323958  0.93644505     0.08600
H1992       H  0.65828436  0.42808367  0.90236340     0.05400
C1993       C  0.63591204  0.53127346  0.66260129    -0.20400
C1994       C  0.66065971  0.00370323  0.66652431    -0.07000
C1995       C  0.65981624  0.97849850  0.64134885     0.13900
C1996       C  0.63397587  0.97893914  0.61737961    -0.20500
C1997       C  0.60786308  0.00262200  0.61868265    -0.07000
C1998       C  0.61141025  0.53015436  0.63706471     0.13900
C1999       C  0.58751906  0.55962113  0.63408087    -0.23800
H2000       H  0.63630883  0.55233803  0.68002965     0.15200
H2001       H  0.63363782  0.95987409  0.59796743     0.15200
C2002       C  0.68498600  0.95006092  0.63945899    -0.23800
H2003       H  0.57082378  0.56052683  0.65659875     0.05400
H2004       H  0.57895577  0.06756960  0.62257692     0.08600
H2005       H  0.60228276  0.58348469  0.63269645     0.08600
H2006       H  0.67129367  0.92554128  0.64013122     0.08600
H2007       H  0.68537854  0.43920189  0.66986287     0.08600
H2008       H  0.69933410  0.95186257  0.61541058     0.05400
C2009       C  0.88730144  0.03025205  0.63791711    -0.20400
C2010       C  0.88783727  0.00539746  0.61264636    -0.07000
C2011       C  0.85388100  0.48163889  0.60775754     0.13900
C2012       C  0.83025137  0.48347827  0.63415614    -0.20500
C2013       C  0.83710941  0.00447983  0.66322437    -0.07000
C2014       C  0.86204022  0.03028614  0.66307041     0.13900
C2015       C  0.86252314  0.05821461  0.68886081    -0.23800
H2016       H  0.90645129  0.04988646  0.63787915     0.15200
H2017       H  0.80856015  0.46665213  0.63434851     0.15200
C2018       C  0.84838096  0.45626994  0.58010212    -0.23800
H2019       H  0.86075543  0.08295121  0.67582489     0.05400
H2020       H  0.86845316  0.54730475  0.71120490     0.08600
H2021       H  0.84124659  0.05668097  0.70703708     0.08600
H2022       H  0.82550820  0.44051008  0.58459099     0.08600
H2023       H  0.85869949  0.96193406  0.56263784     0.08600
H2024       H  0.84506424  0.46932619  0.55553612     0.05400
C2025       C  0.51598003  0.16286554  0.86152055    -0.20400
C2026       C  0.98180864  0.16093680  0.83950669    -0.07000
C2027       C  0.95853899  0.13398206  0.84327373     0.13900
C2028       C  0.96481882  0.10881947  0.86743659    -0.20500
C2029       C  0.99277237  0.11081197  0.88911340    -0.07000
C2030       C  0.51898165  0.13855040  0.88702582     0.13900
C2031       C  0.54792806  0.14111761  0.91136758    -0.23800
H2032       H  0.53452518  0.18300003  0.85953499     0.15200
H2033       H  0.94712483  0.08803090  0.87012141     0.15200
C2034       C  0.92656309  0.13144352  0.82283106    -0.23800
H2035       H  0.56288705  0.11747023  0.91061752     0.05400
H2036       H  0.53805900  0.14533169  0.93724611     0.08600
H2037       H  0.56510845  0.16248438  0.90513122     0.08600
H2038       H  0.92690354  0.10789345  0.80770858     0.08600
H2039       H  0.92310123  0.15309509  0.80545082     0.08600
H2040       H  0.90443752  0.13075299  0.84012867     0.05400
C2041       C  0.97017703  0.36192957  0.83690053    -0.20400
C2042       C  0.99243241  0.33445937  0.83766249    -0.07000
C2043       C  0.51810369  0.33270885  0.86369747     0.13900
C2044       C  0.51968940  0.35775141  0.88881307    -0.20500
C2045       C  0.99673985  0.38606107  0.88684643    -0.07000
C2046       C  0.97204046  0.38778164  0.86105673     0.13900
C2047       C  0.94682877  0.41619010  0.85947929    -0.23800
H2048       H  0.95123306  0.36309592  0.81719859     0.15200
H2049       H  0.53887991  0.35624460  0.90824987     0.15200
C2050       C  0.54431830  0.30517477  0.86314699    -0.23800
H2051       H  0.92782545  0.41219987  0.83925873     0.05400
H2052       H  0.95997167  0.44040689  0.85419510     0.08600
H2053       H  0.93312543  0.41807491  0.88382066     0.08600
H2054       H  0.55803310  0.30565364  0.83866613     0.08600
H2055       H  0.53220172  0.28013110  0.86660477     0.08600
H2056       H  0.56312865  0.30839643  0.88361357     0.05400
C2057       C  0.96831453  0.38495661  0.63588069    -0.20400
C2058       C  0.99502531  0.38464129  0.61255087    -0.07000
C2059       C  0.51969910  0.36096332  0.61519738     0.13900
C2060       C  0.51658502  0.33604748  0.64020916    -0.20500
C2061       C  0.98988639  0.33408348  0.66247995    -0.07000
C2062       C  0.96518458  0.35967355  0.66056346     0.13900
C2063       C  0.93513534  0.35982041  0.68398849    -0.23800
H2064       H  0.94948094  0.40471059  0.63433535     0.15200
H2065       H  0.53646998  0.31756097  0.64337615     0.15200
C2066       C  0.55104699  0.36198983  0.59357765    -0.23800
H2067       H  0.91774642  0.38103432  0.67835126     0.05400
H2068       H  0.94361417  0.36246671  0.71051656     0.08600
H2069       H  0.92077404  0.33584616  0.68123359     0.08600
H2070       H  0.56379746  0.38676167  0.59679561     0.08600
H2071       H  0.54434688  0.35838465  0.56664573     0.08600
H2072       H  0.56922576  0.34190573  0.60066044     0.05400
C2073       C  0.52156673  0.16015144  0.64061326    -0.20400
C2074       C  0.98837502  0.16018050  0.66230888    -0.07000
C2075       C  0.96258728  0.13679994  0.65457316     0.13900
C2076       C  0.96765685  0.11371586  0.62838075    -0.20500
C2077       C  0.99758508  0.11379724  0.60940885    -0.07000
C2078       C  0.52247208  0.13696879  0.61392874     0.13900
C2079       C  0.55171592  0.13793780  0.58945028    -0.23800
H2080       H  0.54188951  0.17834718  0.64351700     0.15200
H2081       H  0.94801319  0.09552446  0.62244896     0.15200
C2082       C  0.92951239  0.13657037  0.67343157    -0.23800
H2083       H  0.54247466  0.14455146  0.56386566     0.05400
H2084       H  0.56428527  0.11300868  0.58842987     0.08600
H2085       H  0.57093723  0.15706020  0.59678007     0.08600
H2086       H  0.91731934  0.16166594  0.67125692     0.08600
H2087       H  0.93385178  0.13064538  0.70043803     0.08600
H2088       H  0.91179658  0.11738037  0.66316951     0.05400
N2089       N  0.49735685  0.74759268  0.19982581    -0.36700
N2090       N  0.49248768  0.69631443  0.25151482    -0.57300
N2091       N  0.49423948  0.74865942  0.30262551    -0.36700
N2092       N  0.49648170  0.80006331  0.25119359    -0.57300
C2093       C  0.48933745  0.72017123  0.18112133     0.26900
C2094       C  0.49087193  0.77516604  0.18077105     0.26900
C2095       C  0.48391229  0.72167218  0.32084926     0.26900
C2096       C  0.48665633  0.77652273  0.32069349     0.26900
C2097       C  0.49989477  0.67665074  0.22475602     0.35500
C2098       C  0.49800019  0.67735755  0.27924085     0.35500
C2099       C  0.50471492  0.81862353  0.22374838     0.35500
C2100       C  0.50423576  0.81904593  0.27844358     0.35500
C2101       C  0.47783157  0.73042483  0.14972154    -0.22000
C2102       C  0.47880180  0.76515237  0.14949269    -0.22000
C2103       C  0.46940342  0.73241596  0.35081491    -0.22000
C2104       C  0.47091237  0.76716859  0.35061866    -0.22000
C2105       C  0.51010051  0.64497130  0.23549851    -0.23000
C2106       C  0.50893336  0.64542873  0.27014031    -0.23000
C2107       C  0.51768878  0.84963420  0.23354174    -0.23000
C2108       C  0.51755327  0.84983634  0.26827870    -0.23000
C2109       C  0.49448150  0.68621075  0.19088388    -0.18400
C2110       C  0.49781251  0.80892940  0.19013821    -0.18400
C2111       C  0.49672458  0.80969530  0.31210118    -0.18400
C2112       C  0.49035697  0.68774909  0.31235568    -0.18400
H2113       H  0.46993856  0.71452808  0.12897246     0.14500
H2114       H  0.47184128  0.78117262  0.12849686     0.14500
H2115       H  0.45940525  0.71679879  0.37096187     0.14500
H2116       H  0.46240320  0.78362919  0.37065759     0.14500
H2117       H  0.51702553  0.62360724  0.22000963     0.12800
H2118       H  0.51471746  0.62447008  0.28668357     0.12800
H2119       H  0.52606156  0.87004531  0.21733207     0.12800
H2120       H  0.52580287  0.87044237  0.28419191     0.12800
H2121       H  0.51022939  0.74743504  0.22267083     0.26100
H2122       H  0.50981274  0.74788365  0.28144724     0.26100
O2123       O  0.99965395  0.59489198  0.05341340    -0.86600
O2124       O  0.00125784  0.90528301  0.06065130    -0.86800
O2125       O  0.94303691  0.50022100  0.09370183    -0.88400
O2126       O  0.55334380  0.49925403  0.09845536    -0.87200
O2127       O  0.59434945  0.00060421  0.06026321    -0.86800
O2128       O  0.90108847  0.99976605  0.05531433    -0.88100
O2129       O  0.99737072  0.94686614  0.10090814    -0.86600
O2130       O  0.99612912  0.55424498  0.09463950    -0.86200
Zr2131     Zr  0.99693072  0.00072645  0.07102621     2.84300
O2132       O  0.53384545  0.96517580  0.03712981    -1.08200
O2133       O  0.96591761  0.53284013  0.03220280    -1.08900
C2134       C  0.99741653  0.58524865  0.08447946     1.06500
C2135       C  0.00008043  0.91576125  0.09155168     1.06500
C2136       C  0.91211902  0.49887016  0.08326504     1.09400
C2137       C  0.58470213  0.49881028  0.08954588     1.07200
H2138       H  0.94969833  0.95062429  0.05138103     0.32800
O2139       O  0.96408861  0.96457805  0.03732757    -1.29100
H2140       H  0.54856359  0.54585634  0.05064829     0.32500
O2141       O  0.53489829  0.53188394  0.03609313    -1.30800
O2142       O  0.00175078  0.90173341  0.44815178    -0.86600
O2143       O  0.00260506  0.59240461  0.44471770    -0.88100
O2144       O  0.90553424  0.94512664  0.50028195    -0.86700
O2145       O  0.59488970  0.94151636  0.50644043    -0.86700
O2146       O  0.59915946  0.55056847  0.50164660    -0.86400
O2147       O  0.90596546  0.55325138  0.49977893    -0.86200
O2148       O  0.94917346  0.99506712  0.40477618    -0.86600
O2149       O  0.55951428  0.00004365  0.40972554    -0.86100
O2150       O  0.90744939  0.99596745  0.44530110    -0.87100
O2151       O  0.59877563  0.99820176  0.45240734    -0.86300
O2152       O  0.94610083  0.90386026  0.49993219    -0.86700
O2153       O  0.94793786  0.59358977  0.49969691    -0.86400
O2154       O  0.55906653  0.59227123  0.49772911    -0.86100
O2155       O  0.55338060  0.90101671  0.50330358    -0.86500
O2156       O  0.00352510  0.94192499  0.40633152    -0.86800
O2157       O  0.00066685  0.55133929  0.40390013    -0.88100
Zr2158     Zr  0.00142660  0.93088417  0.50254880     2.83100
Zr2159     Zr  0.00225708  0.56505744  0.49998613     2.83500
Zr2160     Zr  0.93433598  0.99976612  0.50032969     2.84100
Zr2161     Zr  0.56810570  0.99700298  0.50534312     2.83400
Zr2162     Zr  0.00414725  0.99755452  0.43275915     2.84200
O2163       O  0.53706166  0.53193086  0.46677060    -1.08700
O2164       O  0.96879229  0.96494513  0.46738134    -1.08200
C2165       C  0.00226481  0.91104674  0.41685489     1.06500
C2166       C  0.00110261  0.58239862  0.41373235     1.09100
C2167       C  0.91512962  0.91398415  0.49921228     1.06700
C2168       C  0.58467363  0.91053882  0.50484661     1.09000
C2169       C  0.58991993  0.58165288  0.49934852     1.06600
C2170       C  0.91667301  0.58415403  0.49982763     1.06200
C2171       C  0.91793692  0.99450741  0.41446651     1.06600
C2172       C  0.59007841  0.99969613  0.42111736     1.06100
H2173       H  0.95432082  0.54545054  0.45114596     0.32800
O2174       O  0.96809521  0.53131546  0.46542675    -1.29800
H2175       H  0.54966516  0.94890197  0.45594955     0.32800
O2176       O  0.53528842  0.96320415  0.46947270    -1.31100
N2177       N  0.75279574  0.50304741  0.30235360    -0.36700
N2178       N  0.80266702  0.50366841  0.24905724    -0.57300
N2179       N  0.74929621  0.50471645  0.20004675    -0.36700
N2180       N  0.69925319  0.50537290  0.25297803    -0.57300
C2181       C  0.78127247  0.51097864  0.31937577     0.26900
C2182       C  0.72636629  0.51318833  0.32140923     0.26900
C2183       C  0.77607540  0.51407078  0.18090420     0.26900
C2184       C  0.72106795  0.51339894  0.18308131     0.26900
C2185       C  0.82216396  0.49448003  0.27535941     0.35500
C2186       C  0.82047395  0.49670424  0.22088335     0.35500
C2187       C  0.68118834  0.49861644  0.28108151     0.35500
C2188       C  0.67936316  0.49719373  0.22660310     0.35500
C2189       C  0.77290750  0.52647594  0.34960383    -0.22000
C2190       C  0.73810208  0.52783806  0.35090447    -0.22000
C2191       C  0.76476059  0.52937568  0.15154692    -0.22000
C2192       C  0.72990059  0.52901577  0.15295477    -0.22000
C2193       C  0.85253737  0.48139396  0.26391368    -0.23000
C2194       C  0.85150025  0.48289998  0.22924662    -0.23000
C2195       C  0.64955559  0.48608287  0.27266237    -0.23000
C2196       C  0.64846981  0.48496343  0.23797983    -0.23000
C2197       C  0.81427030  0.50201818  0.30921279    -0.18400
C2198       C  0.69215435  0.50662277  0.31388457    -0.18400
C2199       C  0.68796235  0.50391509  0.19268389    -0.18400
C2200       C  0.81004877  0.50590588  0.18813202    -0.18400
H2201       H  0.79008428  0.53542619  0.36887545     0.14500
H2202       H  0.72312928  0.53797062  0.37138287     0.14500
H2203       H  0.78000212  0.53890999  0.13089009     0.14500
H2204       H  0.71297454  0.53808527  0.13354325     0.14500
H2205       H  0.87360169  0.47272302  0.27896470     0.12800
H2206       H  0.87153257  0.47544666  0.21221011     0.12800
H2207       H  0.62928287  0.47903104  0.28969016     0.12800
H2208       H  0.62714422  0.47687592  0.22291152     0.12800
H2209       H  0.75143635  0.48770519  0.28108393     0.26100
H2210       H  0.75006799  0.48888778  0.22102810     0.26100
N2211       N  0.74989228  0.79963726  0.49729817    -0.36700
N2212       N  0.80366639  0.74925081  0.49902462    -0.57300
N2213       N  0.75303798  0.69667714  0.49967228    -0.36700
N2214       N  0.69937065  0.74707897  0.49472436    -0.57300
C2215       C  0.77733115  0.81829349  0.48882130     0.26900
C2216       C  0.72224276  0.81713263  0.48741405     0.26900
C2217       C  0.78114610  0.67777922  0.49532649     0.26900
C2218       C  0.72611007  0.67671282  0.49291126     0.26900
C2219       C  0.82226506  0.77737400  0.50441605     0.35500
C2220       C  0.82409188  0.72270182  0.50537410     0.35500
C2221       C  0.67911995  0.77382690  0.50055911     0.35500
C2222       C  0.68070443  0.71931065  0.50151712     0.35500
C2223       C  0.76701092  0.84778960  0.47301693    -0.22000
C2224       C  0.73218895  0.84717775  0.47240830    -0.22000
C2225       C  0.77189615  0.64529642  0.48603859    -0.22000
C2226       C  0.73717443  0.64462897  0.48450836    -0.22000
C2227       C  0.85476159  0.76858918  0.51420684    -0.23000
C2228       C  0.85598286  0.73394634  0.51448272    -0.23000
C2229       C  0.64747244  0.76303603  0.51117203    -0.23000
C2230       C  0.64835595  0.72840313  0.51139766    -0.23000
C2231       C  0.81116624  0.81061930  0.49747817    -0.18400
C2232       C  0.68833635  0.80760327  0.49390615    -0.18400
C2233       C  0.69181889  0.68586201  0.49682946    -0.18400
C2234       C  0.81478697  0.68846887  0.50139055    -0.18400
H2235       H  0.78293643  0.86804944  0.46369333     0.14500
H2236       H  0.71600672  0.86671087  0.46233924     0.14500
H2237       H  0.78841152  0.62408602  0.48137951     0.14500
H2238       H  0.72180384  0.62279038  0.47852905     0.14500
H2239       H  0.87566121  0.78530886  0.51994744     0.12800
H2240       H  0.87786130  0.71878587  0.52055056     0.12800
H2241       H  0.62582659  0.77844841  0.51743630     0.12800
H2242       H  0.62755551  0.71180521  0.51797177     0.12800
H2243       H  0.74993120  0.77844116  0.51284180     0.26100
H2244       H  0.75199544  0.72052505  0.51036863     0.26100
C2245       C  0.86151143  0.88541481  0.02173355    -0.20400
C2246       C  0.88840945  0.88779470  0.49742101    -0.07000
C2247       C  0.88998821  0.86052170  0.47449888     0.13900
C2248       C  0.86374451  0.83659171  0.47421040    -0.20500
C2249       C  0.83671372  0.83838559  0.49715693    -0.07000
C2250       C  0.83613835  0.86073245  0.02193424     0.13900
C2251       C  0.81012743  0.86227115  0.04980242    -0.23800
H2252       H  0.86131423  0.90468434  0.04083705     0.15200
H2253       H  0.86466607  0.81577472  0.45652608     0.15200
C2254       C  0.91876936  0.85680898  0.44980561    -0.23800
H2255       H  0.79597089  0.88635326  0.04794573     0.05400
H2256       H  0.81134982  0.89034636  0.56306744     0.08600
H2257       H  0.79167801  0.84121719  0.04920813     0.08600
H2258       H  0.91476789  0.83515442  0.43248596     0.08600
H2259       H  0.94001513  0.85342010  0.95803833     0.08600
H2260       H  0.92114255  0.88000809  0.43427342     0.05400
C2261       C  0.86707322  0.61161705  0.03036039    -0.20400
C2262       C  0.89112212  0.61113509  0.50002525    -0.07000
C2263       C  0.88805643  0.63393852  0.47275507     0.13900
C2264       C  0.86307074  0.65900610  0.47391649    -0.20500
C2265       C  0.84182250  0.66234931  0.50209697    -0.07000
C2266       C  0.84139429  0.63596947  0.03256737     0.13900
C2267       C  0.81943257  0.63720745  0.06367273    -0.23800
H2268       H  0.87065852  0.59381767  0.05085146     0.15200
H2269       H  0.85997698  0.67607052  0.45274712     0.15200
C2270       C  0.91072634  0.63147490  0.44221260    -0.23800
H2271       H  0.82082422  0.66270613  0.07516958     0.05400
H2272       H  0.79799415  0.64135642  0.55600105     0.08600
H2273       H  0.79281003  0.63144064  0.05702636     0.08600
H2274       H  0.90827925  0.60607079  0.43065500     0.08600
H2275       H  0.89772536  0.65031169  0.92478685     0.08600
H2276       H  0.90418777  0.65058694  0.42277686     0.05400
C2277       C  0.61128378  0.86079035  0.97952447    -0.20400
C2278       C  0.61102849  0.88400142  0.50299213    -0.07000
C2279       C  0.63889960  0.88309478  0.52533368     0.13900
C2280       C  0.66383126  0.85830586  0.52122433    -0.20500
C2281       C  0.66180306  0.83431867  0.49535183    -0.07000
C2282       C  0.63571066  0.83519069  0.97800605     0.13900
C2283       C  0.63287778  0.80822887  0.95136625    -0.23800
H2284       H  0.59008584  0.86024149  0.96222453     0.15200
H2285       H  0.68492274  0.85727532  0.53863087     0.15200
C2286       C  0.64198756  0.90737683  0.55428699    -0.23800
H2287       H  0.62887254  0.78314407  0.96314372     0.05400
H2288       H  0.61550514  0.82234741  0.42294636     0.08600
H2289       H  0.61134020  0.81298512  0.93411611     0.08600
H2290       H  0.66454942  0.90208580  0.57006946     0.08600
H2291       H  0.62396023  0.91745778  0.06639430     0.08600
H2292       H  0.64458809  0.93351449  0.54457156     0.05400
C2293       C  0.62286517  0.62525280  0.46881072    -0.20400
C2294       C  0.61693771  0.60724363  0.49872177    -0.07000
C2295       C  0.63538728  0.61165024  0.03773613     0.13900
C2296       C  0.65855404  0.63846526  0.04000323    -0.20500
C2297       C  0.66607822  0.65861248  0.49665139    -0.07000
C2298       C  0.64732739  0.65093240  0.46738785     0.13900
C2299       C  0.65338165  0.66962963  0.43477423    -0.23800
H2300       H  0.60857651  0.61891800  0.44649278     0.15200
H2301       H  0.67534887  0.64023173  0.06151916     0.15200
C2302       C  0.63386346  0.58571216  0.06555702    -0.23800
H2303       H  0.63700363  0.65997491  0.41417162     0.05400
H2304       H  0.68014420  0.66661190  0.42685554     0.08600
H2305       H  0.64792450  0.69686613  0.43824078     0.08600
H2306       H  0.64038617  0.56045430  0.05545303     0.08600
H2307       H  0.60802523  0.58486825  0.07639849     0.08600
H2308       H  0.65188937  0.59160535  0.08620358     0.05400
C2309       C  0.89472853  0.51992544  0.35895450    -0.20400
C2310       C  0.89191380  0.99319605  0.38800352    -0.07000
C2311       C  0.86758762  0.96694655  0.38613705     0.13900
C2312       C  0.84260282  0.96831234  0.36105753    -0.20500
C2313       C  0.84142869  0.50095147  0.33505637    -0.07000
C2314       C  0.86971090  0.52294380  0.33414429     0.13900
C2315       C  0.87375732  0.55067269  0.30829630    -0.23800
H2316       H  0.91643719  0.53669518  0.35818532     0.15200
H2317       H  0.82400571  0.94820736  0.35935449     0.15200
C2318       C  0.86740208  0.93703971  0.40976278    -0.23800
H2319       H  0.87648705  0.57527225  0.32139907     0.05400
H2320       H  0.85188278  0.55290662  0.29105565     0.08600
H2321       H  0.89679444  0.54607248  0.29295422     0.08600
H2322       H  0.84354258  0.93679663  0.42458047     0.08600
H2323       H  0.88887881  0.93711834  0.42763969     0.08600
H2324       H  0.86893501  0.91335234  0.39491427     0.05400
C2325       C  0.61916024  0.53161436  0.37090465    -0.20400
C2326       C  0.61730450  0.00104837  0.39608937    -0.07000
C2327       C  0.64071514  0.97446677  0.39284681     0.13900
C2328       C  0.66493910  0.97601377  0.36710885    -0.20500
C2329       C  0.66697528  0.50692767  0.34160167    -0.07000
C2330       C  0.64418184  0.53393335  0.34587623     0.13900
C2331       C  0.64638635  0.56511603  0.32417773    -0.23800
H2332       H  0.60143990  0.55214774  0.37435533     0.15200
H2333       H  0.68269188  0.95548210  0.36390611     0.15200
C2334       C  0.63928078  0.94388621  0.41553436    -0.23800
H2335       H  0.62682005  0.58391209  0.33115504     0.05400
H2336       H  0.64266770  0.55835722  0.29727341     0.08600
H2337       H  0.67160898  0.57710380  0.32726697     0.08600
H2338       H  0.61397589  0.93176989  0.41377993     0.08600
H2339       H  0.64408131  0.95140662  0.44206375     0.08600
H2340       H  0.65854217  0.92484360  0.40840642     0.05400
C2341       C  0.63168477  0.02581400  0.17116189    -0.20400
C2342       C  0.66128352  0.50198119  0.16636372    -0.07000
C2343       C  0.66276110  0.47796138  0.14009372     0.13900
C2344       C  0.63753653  0.47785575  0.11530986    -0.20500
C2345       C  0.61022353  0.50024753  0.11673347    -0.07000
C2346       C  0.60628220  0.02601905  0.14628941     0.13900
C2347       C  0.57753871  0.05071690  0.14945039    -0.23800
H2348       H  0.62996064  0.04293534  0.19239556     0.15200
H2349       H  0.63880591  0.45976799  0.09496402     0.15200
C2350       C  0.69026140  0.45172459  0.13867270    -0.23800
H2351       H  0.55321672  0.03701083  0.15249554     0.05400
H2352       H  0.57708437  0.56356639  0.12370748     0.08600
H2353       H  0.58063688  0.06740144  0.17173916     0.08600
H2354       H  0.71524962  0.46381999  0.13465558     0.08600
H2355       H  0.70724240  0.95519474  0.15880022     0.08600
H2356       H  0.69065010  0.43717696  0.16264163     0.05400
C2357       C  0.88819903  0.52484929  0.13479664    -0.20400
C2358       C  0.88520343  0.50049651  0.10929346    -0.07000
C2359       C  0.85448015  0.98107003  0.11200998     0.13900
C2360       C  0.83041478  0.98272729  0.13800402    -0.20500
C2361       C  0.83544167  0.50598539  0.16033921    -0.07000
C2362       C  0.86351870  0.52821938  0.16000206     0.13900
C2363       C  0.86797329  0.55614566  0.18539011    -0.23800
H2364       H  0.90973814  0.54185763  0.13473340     0.15200
H2365       H  0.80951464  0.96493465  0.13855332     0.15200
C2366       C  0.85064999  0.95430896  0.08549900    -0.23800
H2367       H  0.86939430  0.58067291  0.17189965     0.05400
H2368       H  0.86449775  0.04873523  0.21416567     0.08600
H2369       H  0.84681805  0.55784117  0.20364538     0.08600
H2370       H  0.87356467  0.93824348  0.08561831     0.08600
H2371       H  0.85038962  0.46149404  0.05817114     0.08600
H2372       H  0.82830490  0.93787134  0.09022463     0.05400
C2373       C  0.51918241  0.66166288  0.36097148    -0.20400
C2374       C  0.99142367  0.65867469  0.33727485    -0.07000
C2375       C  0.96715121  0.63247481  0.34002785     0.13900
C2376       C  0.97135061  0.60753096  0.36484895    -0.20500
C2377       C  0.99866529  0.60864046  0.38739873    -0.07000
C2378       C  0.52281266  0.63645286  0.38544348     0.13900
C2379       C  0.55428086  0.63574595  0.40668809    -0.23800
H2380       H  0.53878552  0.68062076  0.35782313     0.15200
H2381       H  0.95273302  0.58750309  0.36713449     0.15200
C2382       C  0.93640573  0.63038391  0.31770567    -0.23800
H2383       H  0.56750106  0.61138139  0.40278638     0.05400
H2384       H  0.54766440  0.63861804  0.43374832     0.08600
H2385       H  0.57201333  0.65648543  0.39991026     0.08600
H2386       H  0.91325249  0.63030357  0.33360156     0.08600
H2387       H  0.93718657  0.60666212  0.30285009     0.08600
H2388       H  0.93445559  0.65187681  0.29989863     0.05400
C2389       C  0.97894071  0.85851265  0.33996395    -0.20400
C2390       C  0.00297663  0.83261274  0.34157245    -0.07000
C2391       C  0.52087690  0.83385420  0.36641082     0.13900
C2392       C  0.51988906  0.85841436  0.39192930    -0.20500
C2393       C  0.00164993  0.88414860  0.39092588    -0.07000
C2394       C  0.97823142  0.88450476  0.36397451     0.13900
C2395       C  0.95193920  0.91177765  0.36073647    -0.23800
H2396       H  0.96084325  0.85853458  0.31944900     0.15200
H2397       H  0.53747630  0.85692853  0.41282920     0.15200
C2398       C  0.54751038  0.80677789  0.36788381    -0.23800
H2399       H  0.93456702  0.90702621  0.33925596     0.05400
H2400       H  0.96432070  0.93655798  0.35629787     0.08600
H2401       H  0.93653644  0.91300028  0.38410998     0.08600
H2402       H  0.56329826  0.80782154  0.34470581     0.08600
H2403       H  0.53570245  0.78147405  0.37005214     0.08600
H2404       H  0.56439890  0.81007398  0.38997322     0.05400
C2405       C  0.97606160  0.88774042  0.14241800    -0.20400
C2406       C  0.00204989  0.88984817  0.11835005    -0.07000
C2407       C  0.52360192  0.86025974  0.11337093     0.13900
C2408       C  0.52273607  0.83567649  0.13893312    -0.20500
C2409       C  0.00234941  0.83829308  0.16764130    -0.07000
C2410       C  0.97596185  0.86229676  0.16718163     0.13900
C2411       C  0.94751389  0.86084486  0.19252746    -0.23800
H2412       H  0.95550669  0.90573978  0.14147205     0.15200
H2413       H  0.54201131  0.81631581  0.13972423     0.15200
C2414       C  0.55139580  0.85902102  0.08726408    -0.23800
H2415       H  0.93490597  0.83579039  0.19147671     0.05400
H2416       H  0.92820018  0.88049235  0.18753425     0.08600
H2417       H  0.95744929  0.86507389  0.21833934     0.08600
H2418       H  0.56571888  0.88318240  0.08718244     0.08600
H2419       H  0.54049746  0.85454642  0.06187442     0.08600
H2420       H  0.56950330  0.83828705  0.09238653     0.05400
C2421       C  0.52025219  0.66143930  0.13950909    -0.20400
C2422       C  0.99185844  0.66165133  0.16146022    -0.07000
C2423       C  0.96719560  0.63568020  0.15972497     0.13900
C2424       C  0.96991362  0.61085145  0.13456936    -0.20500
C2425       C  0.99601497  0.61189073  0.11054660    -0.07000
C2426       C  0.52283816  0.63703986  0.11408444     0.13900
C2427       C  0.55139810  0.64088621  0.08904883    -0.23800
H2428       H  0.53847281  0.68195622  0.14026534     0.15200
H2429       H  0.95123262  0.59081150  0.13325294     0.15200
C2430       C  0.93749119  0.63454263  0.18361921    -0.23800
H2431       H  0.54750155  0.66409189  0.07380468     0.05400
H2432       H  0.55393659  0.61919249  0.07174033     0.08600
H2433       H  0.57574412  0.64321933  0.10277770     0.08600
H2434       H  0.92338000  0.65866170  0.18223154     0.08600
H2435       H  0.94597500  0.63028351  0.20988865     0.08600
H2436       H  0.91979735  0.61376776  0.17718036     0.05400
N2437       N  0.49356338  0.74856740  0.70051476    -0.36700
N2438       N  0.49504874  0.69650917  0.75134418    -0.57300
N2439       N  0.49783386  0.74801522  0.80333664    -0.36700
N2440       N  0.49416366  0.80012290  0.75262900    -0.57300
C2441       C  0.48515394  0.72100911  0.68214593     0.26900
C2442       C  0.48362889  0.77608015  0.68292591     0.26900
C2443       C  0.49007616  0.72035310  0.82181192     0.26900
C2444       C  0.49056456  0.77526445  0.82244188     0.26900
C2445       C  0.50238922  0.67789574  0.72378691     0.35500
C2446       C  0.50340731  0.67755127  0.77837099     0.35500
C2447       C  0.49945546  0.81952446  0.72507593     0.35500
C2448       C  0.50278639  0.81909603  0.77958267     0.35500
C2449       C  0.46943326  0.73110519  0.65258190    -0.22000
C2450       C  0.46849470  0.76593708  0.65306348    -0.22000
C2451       C  0.47770528  0.73008894  0.85307741    -0.22000
C2452       C  0.47783238  0.76484347  0.85340550    -0.22000
C2453       C  0.51559271  0.64696583  0.73334719    -0.23000
C2454       C  0.51613316  0.64671007  0.76803347    -0.23000
C2455       C  0.51145412  0.85104749  0.73450713    -0.23000
C2456       C  0.51363733  0.85075085  0.76912242    -0.23000
C2457       C  0.49382360  0.68734810  0.69049277    -0.18400
C2458       C  0.49086325  0.80990552  0.69189516    -0.18400
C2459       C  0.49791798  0.80901340  0.81346554    -0.18400
C2460       C  0.49679032  0.68677242  0.81208723    -0.18400
H2461       H  0.46011202  0.71506412  0.63254411     0.14500
H2462       H  0.45837607  0.78200054  0.63343615     0.14500
H2463       H  0.47002796  0.71384559  0.87372699     0.14500
H2464       H  0.47034810  0.78063174  0.87437466     0.14500
H2465       H  0.52322964  0.62644344  0.71707842     0.12800
H2466       H  0.52431618  0.62600366  0.78384724     0.12800
H2467       H  0.51741840  0.87220651  0.71820762     0.12800
H2468       H  0.52168333  0.87162013  0.78480027     0.12800
H2469       H  0.50919217  0.74876805  0.72160764     0.26100
H2470       H  0.51140723  0.74823285  0.78082386     0.26100
O2471       O  0.00175880  0.59426077  0.55419278    -0.86600
O2472       O  0.00038807  0.90471624  0.55826548    -0.86800
O2473       O  0.94110705  0.50084580  0.59412348    -0.88400
O2474       O  0.55397366  0.49928997  0.59712944    -0.87200
O2475       O  0.59305587  0.99859524  0.56136490    -0.86800
O2476       O  0.90598839  0.00384715  0.55536132    -0.88100
O2477       O  0.99854800  0.94651898  0.59846011    -0.86600
O2478       O  0.99735386  0.55395529  0.59570553    -0.86200
Zr2479     Zr  0.00065751  0.00084060  0.56918701     2.84300
O2480       O  0.53206390  0.96394934  0.53860194    -1.08200
O2481       O  0.96595502  0.53199931  0.53329151    -1.08900
C2482       C  0.99951978  0.58495319  0.58539020     1.06500
C2483       C  0.99944733  0.91530655  0.58907639     1.06500
C2484       C  0.91032850  0.50036433  0.58308172     1.09400
C2485       C  0.58529805  0.49919574  0.58785561     1.07200
H2486       H  0.95201661  0.95219479  0.54988508     0.32800
O2487       O  0.96675022  0.96567913  0.53576992    -1.29100
H2488       H  0.54945318  0.54594713  0.54902488     0.32500
O2489       O  0.53541761  0.53190608  0.53483467    -1.30800
O2490       O  0.99988029  0.90194034  0.94956568    -0.86600
O2491       O  0.00034280  0.59491538  0.94419108    -0.88100
O2492       O  0.90383343  0.94244436  0.00043485    -0.86700
O2493       O  0.59698700  0.94485299  0.00458025    -0.86700
O2494       O  0.59773159  0.55236101  0.00616508    -0.86400
O2495       O  0.90495116  0.55288673  0.00060191    -0.86200
O2496       O  0.94606597  0.99726713  0.90553242    -0.86600
O2497       O  0.55899495  0.00121834  0.90753997    -0.86100
O2498       O  0.90459507  0.99729600  0.94617689    -0.87100
O2499       O  0.59862888  0.00022123  0.94999879    -0.86300
O2500       O  0.94510736  0.90182550  0.00144049    -0.86700
O2501       O  0.94604960  0.59411393  0.99998050    -0.86400
O2502       O  0.55688449  0.59338953  0.00368386    -0.86100
O2503       O  0.55647104  0.90339825  0.00155652    -0.86500
O2504       O  0.99955162  0.94262895  0.90803732    -0.86800
O2505       O  0.99913174  0.55403985  0.90310951    -0.88100
Zr2506     Zr  0.99959116  0.93050395  0.00418062     2.83100
Zr2507     Zr  0.00129736  0.56671598  0.99885319     2.83500
Zr2508     Zr  0.93103036  0.99788047  0.00152989     2.84100
Zr2509     Zr  0.56887229  0.99956294  0.00398374     2.83400
Zr2510     Zr  0.00055162  0.99814625  0.93420256     2.84200
O2511       O  0.53645738  0.53197220  0.96776120    -1.08700
O2512       O  0.96628191  0.96399600  0.96867875    -1.08200
C2513       C  0.99933651  0.91171045  0.91841667     1.06500
C2514       C  0.99881673  0.58507683  0.91318566     1.09100
C2515       C  0.91400853  0.91148455  0.99997388     1.06700
C2516       C  0.58747897  0.91366058  0.00315206     1.09000
C2517       C  0.58780108  0.58335651  0.00619261     1.06600
C2518       C  0.91494553  0.58397685  0.00086809     1.06200
C2519       C  0.91486276  0.99686992  0.91524964     1.06600
C2520       C  0.58969318  0.00090439  0.91865942     1.06100
H2521       H  0.95316701  0.54651100  0.95039192     0.32800
O2522       O  0.96733237  0.53256013  0.96444167    -1.29800
H2523       H  0.55094876  0.95154941  0.95432891     0.32800
O2524       O  0.53638075  0.96545383  0.96808370    -1.31100
N2525       N  0.75155801  0.50621374  0.80237548    -0.36700
N2526       N  0.80167721  0.50574165  0.74943969    -0.57300
N2527       N  0.74801782  0.50707009  0.69991191    -0.36700
N2528       N  0.69775515  0.50985064  0.75252263    -0.57300
C2529       C  0.77995756  0.51194665  0.82047209     0.26900
C2530       C  0.72495818  0.51440350  0.82212970     0.26900
C2531       C  0.77516385  0.51540423  0.68084828     0.26900
C2532       C  0.72022943  0.51655292  0.68259512     0.26900
C2533       C  0.82150778  0.49761116  0.77587886     0.35500
C2534       C  0.81935922  0.49813927  0.72133742     0.35500
C2535       C  0.67931164  0.50344753  0.78046367     0.35500
C2536       C  0.67740368  0.50335610  0.72597890     0.35500
C2537       C  0.77132309  0.52386954  0.85221123    -0.22000
C2538       C  0.73654175  0.52541169  0.85326277    -0.22000
C2539       C  0.76451188  0.53065550  0.65120349    -0.22000
C2540       C  0.72971544  0.53129126  0.65227409    -0.22000
C2541       C  0.85206911  0.48483202  0.76459151    -0.23000
C2542       C  0.85057042  0.48483466  0.72992167    -0.23000
C2543       C  0.64694921  0.49312238  0.77166274    -0.23000
C2544       C  0.64574468  0.49307629  0.73701750    -0.23000
C2545       C  0.81314437  0.50407581  0.80986926    -0.18400
C2546       C  0.69060624  0.50930543  0.81369075    -0.18400
C2547       C  0.68671924  0.50884133  0.69208939    -0.18400
C2548       C  0.80892739  0.50674825  0.68839515    -0.18400
H2549       H  0.78828090  0.53017819  0.87268189     0.14500
H2550       H  0.72147150  0.53310484  0.87472064     0.14500
H2551       H  0.78015965  0.53967651  0.63062321     0.14500
H2552       H  0.71322610  0.54079377  0.63269709     0.14500
H2553       H  0.87336219  0.47688586  0.77973152     0.12800
H2554       H  0.87058337  0.47711553  0.71297909     0.12800
H2555       H  0.62625588  0.48677155  0.78845381     0.12800
H2556       H  0.62399206  0.48665322  0.72175988     0.12800
H2557       H  0.75019098  0.49335855  0.77959052     0.26100
H2558       H  0.74822753  0.49154531  0.72112783     0.26100
N2559       N  0.74994736  0.79845876  0.00055050    -0.36700
N2560       N  0.80173647  0.74685097  0.00145942    -0.57300
N2561       N  0.74987146  0.69652781  0.01292143    -0.36700
N2562       N  0.69833290  0.74856738  0.01048506    -0.57300
C2563       C  0.77711657  0.81567710  0.98896808     0.26900
C2564       C  0.72217426  0.81622117  0.99179377     0.26900
C2565       C  0.77640270  0.67697633  0.00398222     0.26900
C2566       C  0.72154128  0.67795818  0.00814006     0.26900
C2567       C  0.82149312  0.77455722  0.00443874     0.35500
C2568       C  0.82143990  0.72011342  0.00900355     0.35500
C2569       C  0.67925717  0.77643746  0.01418513     0.35500
C2570       C  0.67920499  0.72228942  0.02073322     0.35500
C2571       C  0.76662422  0.84467548  0.97248204    -0.22000
C2572       C  0.73182476  0.84492962  0.97409978    -0.22000
C2573       C  0.76485403  0.64560452  0.99366160    -0.22000
C2574       C  0.73020232  0.64621018  0.99626966    -0.22000
C2575       C  0.85397598  0.76536397  0.01373100    -0.23000
C2576       C  0.85398707  0.73077389  0.01637959    -0.23000
C2577       C  0.64787397  0.76794741  0.02745650    -0.23000
C2578       C  0.64773398  0.73344723  0.03132254    -0.23000
C2579       C  0.81099336  0.80768264  0.99656640    -0.18400
C2580       C  0.68876334  0.80858091  0.00207883    -0.18400
C2581       C  0.68822991  0.68833297  0.01571833    -0.18400
C2582       C  0.81081258  0.68614092  0.00693150    -0.18400
H2583       H  0.78245992  0.86397663  0.96117968     0.14500
H2584       H  0.71553072  0.86444925  0.96418335     0.14500
H2585       H  0.77987462  0.62437024  0.98543767     0.14500
H2586       H  0.71333507  0.62549404  0.99031841     0.14500
H2587       H  0.87554930  0.78175550  0.01768875     0.12800
H2588       H  0.87548316  0.71524339  0.02284388     0.12800
H2589       H  0.62679176  0.78461289  0.03227494     0.12800
H2590       H  0.62650840  0.71818871  0.03959036     0.12800
H2591       H  0.75077890  0.77855686  0.01767941     0.26100
H2592       H  0.75122980  0.71978952  0.02499797     0.26100
C2593       C  0.86059820  0.89032435  0.51918729    -0.20400
C2594       C  0.88773984  0.88499426  0.99802763    -0.07000
C2595       C  0.88800253  0.85980493  0.97283317     0.13900
C2596       C  0.86201329  0.83556280  0.97223951    -0.20500
C2597       C  0.83642933  0.83536544  0.99684268    -0.07000
C2598       C  0.83510045  0.86569560  0.52000357     0.13900
C2599       C  0.80738318  0.86844641  0.54609466    -0.23800
H2600       H  0.85927434  0.91125807  0.53626348     0.15200
H2601       H  0.86195612  0.81621433  0.95293435     0.15200
C2602       C  0.91520184  0.85881611  0.94623776    -0.23800
H2603       H  0.78250561  0.87194882  0.53385175     0.05400
H2604       H  0.82305130  0.86131929  0.07463834     0.08600
H2605       H  0.80671111  0.84528235  0.56187605     0.08600
H2606       H  0.91022347  0.83899901  0.92706920     0.08600
H2607       H  0.94276670  0.85230839  0.46350623     0.08600
H2608       H  0.91648703  0.88350854  0.93316105     0.05400
C2609       C  0.87013321  0.61465332  0.52836054    -0.20400
C2610       C  0.88849263  0.61011790  0.00212029    -0.07000
C2611       C  0.88392828  0.63308154  0.97524814     0.13900
C2612       C  0.85821746  0.65732565  0.97738377    -0.20500
C2613       C  0.83701780  0.65917703  0.00576858    -0.07000
C2614       C  0.84590955  0.64045690  0.52997586     0.13900
C2615       C  0.82524636  0.64484585  0.56162295    -0.23800
H2616       H  0.87317323  0.59754432  0.54951873     0.15200
H2617       H  0.85457203  0.67500700  0.95681773     0.15200
C2618       C  0.90558569  0.63142443  0.94394325    -0.23800
H2619       H  0.83239292  0.62629924  0.58139303     0.05400
H2620       H  0.82756721  0.61851629  0.08291180     0.08600
H2621       H  0.82938858  0.67058663  0.57190788     0.08600
H2622       H  0.93240103  0.63650866  0.95044998     0.08600
H2623       H  0.93743639  0.63577180  0.44965697     0.08600
H2624       H  0.90349098  0.60597276  0.93240861     0.05400
C2625       C  0.60904558  0.86002670  0.47699052    -0.20400
C2626       C  0.61417417  0.88751740  0.00262086    -0.07000
C2627       C  0.64232450  0.88860046  0.02460825     0.13900
C2628       C  0.66617603  0.86256934  0.02366505    -0.20500
C2629       C  0.66299719  0.83575395  0.00094505    -0.07000
C2630       C  0.63432469  0.83554962  0.47254777     0.13900
C2631       C  0.63178688  0.81170087  0.44308593    -0.23800
H2632       H  0.58795503  0.86089970  0.45957136     0.15200
H2633       H  0.68741581  0.86293321  0.04092893     0.15200
C2634       C  0.64675969  0.91631340  0.05006163    -0.23800
H2635       H  0.65710236  0.80726459  0.43183203     0.05400
H2636       H  0.65638454  0.80769915  0.93601759     0.08600
H2637       H  0.62068079  0.78731782  0.45139225     0.08600
H2638       H  0.66906567  0.91204102  0.06649945     0.08600
H2639       H  0.61926629  0.90535481  0.57064335     0.08600
H2640       H  0.65066724  0.94082772  0.03702058     0.05400
C2641       C  0.61625886  0.63401463  0.98389175    -0.20400
C2642       C  0.61378532  0.60974168  0.00943645    -0.07000
C2643       C  0.63664954  0.61409563  0.52758414     0.13900
C2644       C  0.66085946  0.63999071  0.52628929    -0.20500
C2645       C  0.66102323  0.66263232  0.01420016    -0.07000
C2646       C  0.63999382  0.66016996  0.98558614     0.13900
C2647       C  0.64350088  0.68425460  0.95625183    -0.23800
H2648       H  0.60018628  0.63186561  0.96207758     0.15200
H2649       H  0.67579756  0.64584054  0.54844302     0.15200
C2650       C  0.63196410  0.59436443  0.55978036    -0.23800
H2651       H  0.62613751  0.67760278  0.93530045     0.05400
H2652       H  0.66975808  0.68350493  0.94632192     0.08600
H2653       H  0.63750514  0.71032869  0.96435767     0.08600
H2654       H  0.63790915  0.56737592  0.55538959     0.08600
H2655       H  0.60546122  0.59644392  0.56852098     0.08600
H2656       H  0.64871191  0.60376307  0.58020778     0.05400
C2657       C  0.89030957  0.52469480  0.86318896    -0.20400
C2658       C  0.88871994  0.99611273  0.88877440    -0.07000
C2659       C  0.86131440  0.97309405  0.88997203     0.13900
C2660       C  0.83771372  0.97297783  0.86361245    -0.20500
C2661       C  0.84028413  0.50225863  0.83566913    -0.07000
C2662       C  0.86482697  0.52799228  0.83887809     0.13900
C2663       C  0.86335188  0.55947174  0.81761083    -0.23800
H2664       H  0.90917126  0.54443211  0.86585052     0.15200
H2665       H  0.81694780  0.95503590  0.86403668     0.15200
C2666       C  0.85707145  0.94828499  0.91861909    -0.23800
H2667       H  0.86641119  0.55305840  0.79054458     0.05400
H2668       H  0.88359960  0.57757440  0.82456573     0.08600
H2669       H  0.83865802  0.57215570  0.82143134     0.08600
H2670       H  0.85206957  0.96195322  0.94252259     0.08600
H2671       H  0.88028248  0.93289713  0.92133142     0.08600
H2672       H  0.83547346  0.93083326  0.91432588     0.05400
C2673       C  0.61661136  0.53195942  0.87038433    -0.20400
C2674       C  0.61680041  0.00149455  0.89324305    -0.07000
C2675       C  0.63862307  0.97373105  0.88864295     0.13900
C2676       C  0.66294674  0.97501190  0.86286496    -0.20500
C2677       C  0.66521959  0.50875880  0.84122055    -0.07000
C2678       C  0.64148183  0.53498549  0.84530008     0.13900
C2679       C  0.64263103  0.56620482  0.82352039    -0.23800
H2680       H  0.59811471  0.55183210  0.87363486     0.15200
H2681       H  0.67943503  0.95362876  0.85864190     0.15200
C2682       C  0.63557929  0.94242663  0.91014413    -0.23800
H2683       H  0.63839439  0.55949889  0.79669886     0.05400
H2684       H  0.66768462  0.57867555  0.82603729     0.08600
H2685       H  0.62288586  0.58463923  0.83093107     0.08600
H2686       H  0.60982720  0.93146801  0.90759478     0.08600
H2687       H  0.64024237  0.94878785  0.93700431     0.08600
H2688       H  0.65416929  0.92288251  0.90258818     0.05400
C2689       C  0.63479825  0.02797314  0.66763636    -0.20400
C2690       C  0.66063387  0.50614454  0.66527994    -0.07000
C2691       C  0.66059464  0.47891223  0.64231506     0.13900
C2692       C  0.63563554  0.47736325  0.61730878    -0.20500
C2693       C  0.61094937  0.50245343  0.61452720    -0.07000
C2694       C  0.60800588  0.02736986  0.64434478     0.13900
C2695       C  0.58059854  0.05356083  0.64673353    -0.23800
H2696       H  0.63538910  0.04711400  0.68714327     0.15200
H2697       H  0.63514923  0.45629178  0.60003992     0.15200
C2698       C  0.68647820  0.45116091  0.64452475    -0.23800
H2699       H  0.55593072  0.04123785  0.65214698     0.05400
H2700       H  0.57151332  0.55861141  0.61121437     0.08600
H2701       H  0.58563494  0.07203387  0.66718577     0.08600
H2702       H  0.68198947  0.43126234  0.62532557     0.08600
H2703       H  0.70323177  0.94990247  0.66059714     0.08600
H2704       H  0.71220272  0.46155018  0.64018092     0.05400
C2705       C  0.88633061  0.52644697  0.63447751    -0.20400
C2706       C  0.88292879  0.50265569  0.60851681    -0.07000
C2707       C  0.86305463  0.97964097  0.61328141     0.13900
C2708       C  0.83802315  0.97953159  0.63835632    -0.20500
C2709       C  0.83426226  0.50665847  0.66057567    -0.07000
C2710       C  0.86191280  0.52934355  0.66000153     0.13900
C2711       C  0.86507742  0.55746854  0.68539957    -0.23800
H2712       H  0.90799072  0.54328762  0.63444014     0.15200
H2713       H  0.81921538  0.95955226  0.63889093     0.15200
C2714       C  0.86359317  0.95146233  0.58812416    -0.23800
H2715       H  0.88715605  0.57395440  0.67987137     0.05400
H2716       H  0.88652631  0.05727000  0.70331291     0.08600
H2717       H  0.84200169  0.57331731  0.68470268     0.08600
H2718       H  0.88856195  0.93871022  0.58858927     0.08600
H2719       H  0.87062611  0.43943970  0.57895353     0.08600
H2720       H  0.84385966  0.93224363  0.59364144     0.05400
C2721       C  0.52446770  0.66065990  0.86170794    -0.20400
C2722       C  0.98754787  0.66323698  0.83900813    -0.07000
C2723       C  0.96079514  0.64031037  0.84532775     0.13900
C2724       C  0.96539842  0.61442642  0.86914630    -0.20500
C2725       C  0.99571313  0.61165925  0.88727350    -0.07000
C2726       C  0.52672291  0.63624084  0.88722230     0.13900
C2727       C  0.55590720  0.63758486  0.91137340    -0.23800
H2728       H  0.54362120  0.68021999  0.85970264     0.15200
H2729       H  0.94497348  0.59678021  0.87413560     0.15200
C2730       C  0.92729901  0.64264260  0.82752172    -0.23800
H2731       H  0.57364996  0.65850102  0.90520317     0.05400
H2732       H  0.57014353  0.61350151  0.91031009     0.08600
H2733       H  0.54632827  0.64179461  0.93735318     0.08600
H2734       H  0.92356662  0.61981700  0.81179960     0.08600
H2735       H  0.92551881  0.66507653  0.81087440     0.08600
H2736       H  0.90660654  0.64425691  0.84643944     0.05400
C2737       C  0.97419433  0.85934807  0.84244647    -0.20400
C2738       C  0.00174435  0.83734163  0.83993179    -0.07000
C2739       C  0.52346458  0.83533066  0.86598650     0.13900
C2740       C  0.52287125  0.86076633  0.89056518    -0.20500
C2741       C  0.99870466  0.88548450  0.89217742    -0.07000
C2742       C  0.97233993  0.88350892  0.86815466     0.13900
C2743       C  0.94160908  0.90595658  0.86909427    -0.23800
H2744       H  0.95375633  0.85737900  0.82434110     0.15200
H2745       H  0.54163624  0.86075997  0.91048301     0.15200
C2746       C  0.55150728  0.80966076  0.86665257    -0.23800
H2747       H  0.91839803  0.89013042  0.87023478     0.05400
H2748       H  0.94076918  0.92157047  0.84582657     0.08600
H2749       H  0.94110453  0.92309614  0.89112841     0.08600
H2750       H  0.56541027  0.81020333  0.84229103     0.08600
H2751       H  0.54120410  0.78398464  0.87099725     0.08600
H2752       H  0.56990154  0.81496163  0.88710552     0.05400
C2753       C  0.97254972  0.88524237  0.63713410    -0.20400
C2754       C  0.00054372  0.88936967  0.61569012    -0.07000
C2755       C  0.52155084  0.86343232  0.61870066     0.13900
C2756       C  0.51905273  0.83814503  0.64344646    -0.20500
C2757       C  0.00026517  0.83829292  0.66525507    -0.07000
C2758       C  0.97220235  0.86001607  0.66210820     0.13900
C2759       C  0.94192982  0.85636403  0.68499304    -0.23800
H2760       H  0.95087145  0.90164214  0.63416287     0.15200
H2761       H  0.53925238  0.81994861  0.64628865     0.15200
C2762       C  0.55272062  0.86517563  0.59680395    -0.23800
H2763       H  0.92172991  0.87460690  0.67842493     0.05400
H2764       H  0.94947605  0.86102228  0.71154721     0.08600
H2765       H  0.93131340  0.83047217  0.68286693     0.08600
H2766       H  0.54585464  0.86141075  0.56994140     0.08600
H2767       H  0.57136365  0.84544787  0.60370973     0.08600
H2768       H  0.56508171  0.89019015  0.59981807     0.05400
C2769       C  0.51831252  0.66436433  0.63735581    -0.20400
C2770       C  0.99327579  0.66209573  0.66239779    -0.07000
C2771       C  0.96925181  0.63549067  0.66069257     0.13900
C2772       C  0.97284460  0.61027988  0.63606954    -0.20500
C2773       C  0.99835623  0.61191189  0.61145832    -0.07000
C2774       C  0.52174818  0.63966925  0.61215773     0.13900
C2775       C  0.54978350  0.64464128  0.58676169    -0.23800
H2776       H  0.53513162  0.68605281  0.63721332     0.15200
H2777       H  0.95464444  0.58975775  0.63529173     0.15200
C2778       C  0.93883682  0.63337115  0.68358553    -0.23800
H2779       H  0.57422503  0.64755811  0.60022767     0.05400
H2780       H  0.54500579  0.66785155  0.57180440     0.08600
H2781       H  0.55270646  0.62327397  0.56916516     0.08600
H2782       H  0.93640161  0.65537546  0.70058324     0.08600
H2783       H  0.94029642  0.61010574  0.69916816     0.08600
H2784       H  0.91552087  0.63234247  0.66804583     0.05400
loop_ 
_geom_bond_atom_site_label_1 
_geom_bond_atom_site_label_2 
_geom_bond_distance 
_geom_bond_site_symmetry_2 
_ccdc_geom_bond_type 
N1            C6   1.353       .  A
N1            C5   1.352       .  A
N1           H33   1.039   1_655  S
N2            C9   1.349       .  A
N2           C10   1.352       .  A
N3            C8   1.352       .  A
N3            C7   1.352       .  A
N3           H34   1.041   1_655  S
N4           C11   1.351       .  A
N4           C12   1.350       .  A
C5           C13   1.387       .  A
C5           C21   1.414       .  A
C6           C22   1.414       .  A
C6           C14   1.387       .  A
C7           C15   1.386       .  A
C7           C24   1.411       .  A
C8           C23   1.414       .  A
C8           C16   1.388       .  A
C9           C21   1.413       .  A
C9           C17   1.388   1_655  A
C10          C24   1.411       .  A
C10          C18   1.385   1_655  A
C11          C19   1.385   1_655  A
C11          C22   1.411       .  A
C12          C20   1.388   1_655  A
C12          C23   1.415       .  A
C13          C14   1.376       .  A
C13          H25   1.082       .  S
C14          H26   1.083       .  S
C15          C16   1.378       .  A
C15          H27   1.083       .  S
C16          H28   1.082       .  S
C17          C18   1.375       .  A
C17          H29   1.082       .  S
C18          H30   1.082       .  S
C19          C20   1.375       .  A
C19          H31   1.082       .  S
C20          H32   1.082       .  S
C21        C1726   1.486       .  S
C22        C1713   1.489       .  S
C23        C1694   1.490       .  S
C24        C1678   1.491       .  S
O35          C46   1.291       .  A
O35        Zr419   2.432       .  S
O36          C47   1.295       .  A
O36        Zr418   2.453       .  S
O37          C48   1.293       .  A
O37        Zr739   2.446   1_545  S
O38          C49   1.293       .  A
O38       Zr2131   2.445   1_455  S
O39         C745   1.293       .  A
O39        Zr421   2.440       .  S
O40         C744   1.290       .  A
O40        Zr420   2.427   1_554  S
O41          C47   1.288       .  A
O41         Zr43   2.421       .  S
O42          C46   1.293       .  A
O42        Zr739   2.444   1_545  S
Zr43        O733   2.431       .  S
Zr43       O2126   2.428       .  S
Zr43        O738   2.439       .  S
Zr43         O51   2.346       .  S
Zr43       O1436   2.347       .  S
Zr43        O741   2.333       .  S
Zr43       O2141   2.332       .  S
O44       Zr1435   2.354   1_455  S
O44       Zr1810   2.344   1_554  S
O44        Zr421   2.341       .  S
O45        Zr739   2.334   1_545  S
O45        Zr419   2.337       .  S
O45       Zr1116   2.332   1_544  S
C46         C337   1.477       .  S
C47         C318   1.471       .  S
C48         C270   1.476       .  S
C48         O736   1.289       .  A
C49         C257   1.476       .  S
C49         O735   1.291   1_545  A
H50          O51   0.965       .  S
O51        Zr418   2.350       .  S
O51        Zr420   2.345   1_554  S
H52          O53   0.967       .  S
O53       Zr2131   2.345   1_455  S
O53       Zr1811   2.339   1_455  S
O53       Zr1117   2.350   1_545  S
O54          C77   1.292       .  A
O54         Zr70   2.437       .  S
O55          C78   1.294       .  A
O55         Zr71   2.455       .  S
O56          C79   1.292       .  A
O56         Zr72   2.437       .  S
O57          C80   1.289       .  A
O57         Zr73   2.430       .  S
O58          C81   1.291       .  A
O58        Zr769   2.437   1_545  S
O59          C82   1.294       .  A
O59        Zr768   2.448   1_545  S
O60          C83   1.293       .  A
O60         Zr74   2.443       .  S
O61          C84   1.292       .  A
O61       Zr1466   2.440       .  S
O62          C83   1.290       .  A
O62         Zr72   2.430       .  S
O63          C84   1.293       .  A
O63         Zr73   2.446       .  S
O64          C79   1.290       .  A
O64         Zr70   2.428       .  S
O65          C82   1.289       .  A
O65         Zr71   2.422       .  S
O66          C81   1.292       .  A
O66       Zr1463   2.441       .  S
O67          C80   1.292       .  A
O67       Zr1462   2.442       .  S
O68          C77   1.290       .  A
O68         Zr74   2.431       .  S
O69          C78   1.289       .  A
O69        Zr770   2.431   1_545  S
Zr70        O384   2.444       .  S
Zr70       O1459   2.444       .  S
Zr70         O76   2.335       .  S
Zr70       O1784   2.344       .  S
Zr70        O399   2.348       .  S
Zr70       O1480   2.338       .  S
Zr71        O383   2.431       .  S
Zr71       O1458   2.430       .  S
Zr71         O86   2.335       .  S
Zr71        O393   2.341       .  S
Zr71       O1793   2.341       .  S
Zr71       O1467   2.330       .  S
Zr72        O388   2.433       .  S
Zr72        O755   2.442       .  S
Zr72         O76   2.332       .  S
Zr72       O1089   2.340       .  S
Zr72        O399   2.337       .  S
Zr72        O782   2.337       .  S
Zr73        O387   2.443       .  S
Zr73        O754   2.416       .  S
Zr73         O88   2.341       .  S
Zr73        O392   2.337       .  S
Zr73       O1097   2.340       .  S
Zr73        O771   2.346       .  S
Zr74       O1453   2.442       .  S
Zr74        O765   2.437       .  S
Zr74         O76   2.332       .  S
Zr74       O2163   2.338       .  S
Zr74       O1480   2.346       .  S
Zr74        O782   2.335       .  S
O75       Zr1463   2.337       .  S
O75        Zr769   2.350   1_545  S
O75       Zr2162   2.343   1_545  S
C77         C305   1.473       .  S
C78         C289   1.473       .  S
C79         C158   1.473       .  S
C80         C190   1.474       .  S
C81         C206   1.472       .  S
C82         C174   1.474       .  S
C83         C222   1.474       .  S
C84         C238   1.475       .  S
H85          O86   0.965       .  S
O86        Zr768   2.343   1_545  S
O86        Zr770   2.337   1_545  S
H87          O88   0.968       .  S
O88       Zr1462   2.335       .  S
O88       Zr1466   2.348       .  S
N89          C94   1.351       .  A
N89          C93   1.353       .  A
N89         H121   1.040   1_545  S
N90          C97   1.350       .  A
N90          C98   1.348       .  A
N91          C96   1.351       .  A
N91          C95   1.351       .  A
N91         H122   1.041   1_545  S
N92          C99   1.348   1_545  A
N92         C100   1.350   1_545  A
C93         C101   1.386       .  A
C93         C109   1.413       .  A
C94         C110   1.415       .  A
C94         C102   1.388       .  A
C95         C103   1.387       .  A
C95         C112   1.412       .  A
C96         C111   1.411       .  A
C96         C104   1.387       .  A
C97         C109   1.409       .  A
C97         C105   1.385   1_545  A
C98         C112   1.410       .  A
C98         C106   1.387   1_545  A
C99         C107   1.388       .  A
C99         C110   1.412   1_565  A
C100        C108   1.386       .  A
C100        C111   1.410   1_565  A
C101        C102   1.376       .  A
C101        H113   1.082       .  S
C102        H114   1.082       .  S
C103        C104   1.377       .  A
C103        H115   1.082       .  S
C104        H116   1.083       .  S
C105        C106   1.374       .  A
C105        H117   1.082       .  S
C106        H118   1.082       .  S
C107        C108   1.376       .  A
C107        H119   1.082       .  S
C108        H120   1.082       .  S
C109        C225   1.491       .  S
C110        C241   1.486       .  S
C111        C254   1.487       .  S
C112        C273   1.484       .  S
N123        C128   1.351       .  A
N123        C127   1.350       .  A
N123        H155   1.040       .  S
N124        C131   1.350       .  A
N124        C132   1.351       .  A
N125        C130   1.351       .  A
N125        C129   1.352       .  A
N125        H156   1.040       .  S
N126        C133   1.349       .  A
N126        C134   1.349       .  A
C127        C135   1.388       .  A
C127        C143   1.412       .  A
C128        C144   1.412       .  A
C128        C136   1.387       .  A
C129        C137   1.386       .  A
C129        C146   1.413       .  A
C130        C145   1.411       .  A
C130        C138   1.387       .  A
C131        C143   1.412       .  A
C131        C139   1.387       .  A
C132        C146   1.411       .  A
C132        C140   1.385       .  A
C133        C141   1.386       .  A
C133        C144   1.410       .  A
C134        C142   1.386       .  A
C134        C145   1.409       .  A
C135        C136   1.380       .  A
C135        H147   1.083       .  S
C136        H148   1.083       .  S
C137        C138   1.377       .  A
C137        H149   1.082       .  S
C138        H150   1.082       .  S
C139        C140   1.372       .  A
C139        H151   1.082       .  S
C140        H152   1.082       .  S
C141        C142   1.374       .  A
C141        H153   1.082       .  S
C142        H154   1.082       .  S
C143        C161   1.485       .  S
C144        C193   1.484       .  S
C145        C209   1.482       .  S
C146        C177   1.491       .  S
C157        C162   1.401       .  A
C157        C506   1.400   1_554  A
C157        H164   1.075       .  S
C158        C159   1.415       .  A
C158        C505   1.400       .  A
C159        C160   1.403       .  A
C159        C166   1.509       .  S
C160        C161   1.403       .  A
C160        H165   1.084       .  S
C161        C510   1.413       .  A
C162        C509   1.411   1_554  A
C162        C163   1.508       .  S
C163        H167   1.108       .  S
C163        H169   1.110       .  S
C163        H516   1.110       .  S
C166        H170   1.111       .  S
C166        H172   1.108       .  S
C166        H519   1.110       .  S
H168        C511   1.111       .  S
H171        C514   1.110       .  S
C173        C178   1.400       .  A
C173        C522   1.399   1_554  A
C173        H180   1.085       .  S
C174        C175   1.415       .  A
C174        C521   1.401       .  A
C175        C176   1.403       .  A
C175        C182   1.509       .  S
C176        C177   1.405       .  A
C176        H181   1.084       .  S
C177        C526   1.417       .  A
C178        C525   1.414   1_554  A
C178        C179   1.508       .  S
C179        H183   1.111       .  S
C179        H185   1.111       .  S
C179        H532   1.108       .  S
C182        H186   1.110       .  S
C182        H188   1.111       .  S
C182        H535   1.110       .  S
H184        C527   1.110       .  S
H187        C530   1.110       .  S
C189        C194   1.406       .  A
C189        C538   1.405       .  A
C189        H196   1.085       .  S
C190        C191   1.413       .  A
C190        C537   1.402       .  A
C191        C192   1.403       .  A
C191        C198   1.504       .  S
C192        C193   1.402       .  A
C192        H197   1.084       .  S
C193        C542   1.413       .  A
C194        C541   1.418       .  A
C194        C195   1.507       .  S
C195        H199   1.111       .  S
C195        H201   1.110       .  S
C195        H548   1.107       .  S
C198        H202   1.111       .  S
C198        H204   1.109       .  S
C198        H551   1.109       .  S
H200        C543   1.108       .  S
H203        C546   1.110       .  S
C205        C206   1.400       .  A
C205        C210   1.399       .  A
C205        H212   1.080       .  S
C206        C555   1.413       .  A
C207        C208   1.404       .  A
C207        C554   1.419       .  A
C207        C214   1.510       .  S
C208        C557   1.402       .  A
C208        H213   1.085       .  S
C209        C210   1.409       .  A
C209        C556   1.403       .  A
C210        C211   1.507       .  S
C211        H215   1.110       .  S
C211        H216   1.110       .  S
C211        H217   1.110       .  S
C214        H218   1.110       .  S
C214        H219   1.106       .  S
C214        H220   1.111       .  S
C221        C226   1.403       .  A
C221        C918   1.403   1_545  A
C221        H228   1.085       .  S
C222        C223   1.415       .  A
C222        C917   1.401       .  A
C223        C224   1.403       .  A
C223        C230   1.507       .  S
C224        C921   1.404       .  A
C224        H229   1.084       .  S
C225        C226   1.417       .  A
C225        C920   1.403   1_545  A
C226        C227   1.508       .  S
C227        H231   1.111       .  S
C227        H232   1.107       .  S
C227        H233   1.110       .  S
C230        H234   1.109       .  S
C230        H235   1.107       .  S
C230        H236   1.111       .  S
C237        C242   1.402       .  A
C237        C934   1.403       .  A
C237        H244   1.084       .  S
C238        C239   1.413       .  A
C238        C933   1.403       .  A
C239        C240   1.404       .  A
C239        C246   1.508       .  S
C240        C937   1.403       .  A
C240        H245   1.084       .  S
C241        C242   1.413       .  A
C241        C936   1.402   1_545  A
C242        C243   1.508       .  S
C243        H247   1.111       .  S
C243        H248   1.108       .  S
C243        H249   1.111       .  S
C246        H250   1.111       .  S
C246        H251   1.110       .  S
C246        H252   1.111       .  S
C253        C258   1.406       .  A
C253        C950   1.406       .  A
C253        H260   1.084       .  S
C254        C255   1.412   1_545  A
C254        C949   1.403       .  A
C255        C256   1.401       .  A
C255        C262   1.508       .  S
C256        C257   1.402   1_565  A
C256        H261   1.077       .  S
C257        C954   1.413       .  A
C258        C953   1.416       .  A
C258        C259   1.509       .  S
C259        H263   1.110       .  S
C259        H265   1.111       .  S
C259        H960   1.107       .  S
C262        H266   1.110       .  S
C262        H268   1.109       .  S
C262        H963   1.110       .  S
H264        C955   1.111       .  S
H267        C958   1.107       .  S
C269        C270   1.404       .  A
C269        C274   1.403       .  A
C269        H276   1.083       .  S
C270        C967   1.414   1_545  A
C271        C272   1.399       .  A
C271        C966   1.410       .  A
C271        C278   1.500       .  S
C272        C969   1.399       .  A
C272        H277   1.084       .  S
C273        C274   1.415       .  A
C273        C968   1.401   1_545  A
C274        C275   1.508       .  S
C275        H279   1.110       .  S
C275        H281   1.108       .  S
C275        H976   1.111       .  S
C278        H282   1.111       .  S
C278        H284   1.110       .  S
C278        H979   1.109       .  S
H280        C971   1.110       .  S
H283        C974   1.109       .  S
C285        C290   1.403       .  A
C285       C1678   1.403   1_455  A
C285        H292   1.084       .  S
C286        C287   1.412       .  A
C286       C1677   1.401       .  A
C286       C1416   1.485       .  S
C287        C288   1.406       .  A
C287        C294   1.506       .  S
C288        C289   1.404       .  A
C288        H293   1.084       .  S
C289       C1682   1.413       .  A
C290       C1681   1.413   1_455  A
C290        C291   1.504       .  S
C291        H295   1.111       .  S
C291        H296   1.110       .  S
C291        H297   1.110       .  S
C294        H298   1.110       .  S
C294        H299   1.110       .  S
C294        H300   1.111       .  S
C301        C302   1.404       .  A
C301        C306   1.403       .  A
C301        H308   1.084       .  S
C302       C1695   1.410       .  A
C302       C1415   1.485       .  S
C303        C304   1.405       .  A
C303       C1694   1.414   1_455  A
C303        C310   1.508       .  S
C304       C1697   1.405   1_455  A
C304        H309   1.084       .  S
C305        C306   1.415       .  A
C305       C1696   1.403       .  A
C306        C307   1.508       .  S
C307        H311   1.111       .  S
C307        H312   1.110       .  S
C307        H313   1.108       .  S
C310        H314   1.110       .  S
C310        H315   1.108       .  S
C310        H316   1.111       .  S
C317        C318   1.403       .  A
C317        C322   1.403       .  A
C317        H324   1.084       .  S
C318       C1711   1.412       .  A
C319        C320   1.404       .  A
C319       C1710   1.412   1_455  A
C319        C326   1.508       .  S
C320       C1713   1.403   1_455  A
C320        H325   1.084       .  S
C321        C322   1.413       .  A
C321       C1712   1.401       .  A
C321       C1414   1.483       .  S
C322        C323   1.507       .  S
C323        H327   1.111       .  S
C323        H328   1.110       .  S
C323        H329   1.110       .  S
C326        H330   1.110       .  S
C326        H331   1.110       .  S
C326        H332   1.110       .  S
C333        C338   1.400       .  A
C333       C1726   1.401   1_455  A
C333        H340   1.084       .  S
C334        C335   1.418       .  A
C334       C1725   1.402       .  A
C334       C1413   1.490       .  S
C335        C336   1.403       .  A
C335        C342   1.508       .  S
C336        C337   1.403       .  A
C336        H341   1.083       .  S
C337       C1730   1.415       .  A
C338       C1729   1.415   1_455  A
C338        C339   1.509       .  S
C339        H343   1.110       .  S
C339        H344   1.111       .  S
C339        H345   1.111       .  S
C342        H346   1.108       .  S
C342        H347   1.111       .  S
C342        H348   1.110       .  S
N349        C354   1.352       .  A
N349        C353   1.350       .  A
N349        H381   1.040       .  S
N350        C357   1.352       .  A
N350        C358   1.352       .  A
N351        C356   1.353       .  A
N351        C355   1.351       .  A
N351        H382   1.039       .  S
N352        C359   1.350       .  A
N352        C360   1.351       .  A
C353        C361   1.387       .  A
C353        C369   1.410       .  A
C354        C370   1.413       .  A
C354        C362   1.387       .  A
C355        C363   1.387       .  A
C355        C372   1.415       .  A
C356        C371   1.415       .  A
C356        C364   1.387       .  A
C357        C369   1.413       .  A
C357        C365   1.385       .  A
C358        C372   1.415       .  A
C358        C366   1.387       .  A
C359        C367   1.385   1_655  A
C359        C370   1.410       .  A
C360        C368   1.386   1_655  A
C360        C371   1.413       .  A
C361        C362   1.378       .  A
C361        H373   1.083       .  S
C362        H374   1.082       .  S
C363        C364   1.379       .  A
C363        H375   1.082       .  S
C364        H376   1.083       .  S
C365        C366   1.375       .  A
C365        H377   1.082   1_655  S
C366        H378   1.082   1_655  S
C367        C368   1.376       .  A
C367        H379   1.082       .  S
C368        H380   1.082       .  S
C369       C2074   1.485       .  S
C370       C2061   1.487       .  S
C371       C2042   1.493       .  S
C372       C2026   1.491       .  S
O383        C394   1.291       .  A
O384        C395   1.293       .  A
O385        C396   1.291       .  A
O385      Zr1087   2.434   1_545  S
O386        C397   1.291       .  A
O386      Zr2479   2.434       .  S
O387       C1093   1.293       .  A
O388       C1092   1.291       .  A
O389        C395   1.293       .  A
O389       Zr391   2.445       .  S
O390        C394   1.292       .  A
O390      Zr1087   2.439   1_545  S
Zr391      O1081   2.429       .  S
Zr391      O2474   2.436       .  S
Zr391      O1086   2.452       .  S
Zr391      O1784   2.351       .  S
Zr391      O1089   2.338       .  S
Zr391      O2489   2.340       .  S
Zr391       O399   2.347       .  S
O392      Zr1783   2.355   1_455  S
O392      Zr1462   2.337       .  S
O393      Zr1087   2.337   1_545  S
O393       Zr768   2.332   1_545  S
C394        C685   1.471       .  S
C395        C666   1.477       .  S
C396        C618   1.478       .  S
C396       O1084   1.294       .  A
C397        C605   1.477       .  S
C397       O1083   1.293   1_545  A
H398        O399   0.967       .  S
H400        O401   0.966       .  S
O401      Zr2479   2.342       .  S
O401      Zr1463   2.344       .  S
O401       Zr769   2.337   1_545  S
O402        C425   1.293       .  A
O402       Zr418   2.444   1_556  S
O403        C426   1.292       .  A
O403       Zr419   2.442   1_556  S
O404        C427   1.293       .  A
O404       Zr420   2.442       .  S
O405        C428   1.295   1_554  A
O405       Zr421   2.453       .  S
O406        C429   1.288       .  A
O406      Zr1117   2.421   1_545  S
O407        C430   1.292       .  A
O407      Zr1116   2.440   1_545  S
O408        C431   1.293       .  A
O408       Zr422   2.444       .  S
O409        C432   1.294       .  A
O409      Zr1814   2.445       .  S
O410        C431   1.291       .  A
O410       Zr420   2.433       .  S
O411        C432   1.292       .  A
O411       Zr421   2.441   1_556  S
O412        C427   1.294       .  A
O412       Zr418   2.448   1_556  S
O413        C430   1.288       .  A
O413       Zr419   2.418   1_556  S
O414        C429   1.295       .  A
O414      Zr1811   2.451   1_455  S
O415        C428   1.292       .  A
O415      Zr1810   2.439       .  S
O416        C425   1.294       .  A
O416       Zr422   2.449       .  S
O417        C426   1.293       .  A
O417      Zr1118   2.446   1_545  S
Zr418      O1807   2.446   1_554  S
Zr418      O1436   2.344       .  S
Zr418       O424   2.340   1_554  S
Zr418      O1828   2.343   1_554  S
Zr419      O1806   2.430       .  S
Zr419      O1445   2.334       .  S
Zr419      O1815   2.338   1_554  S
Zr419       O434   2.334   1_554  S
Zr420      O1103   2.447   1_556  S
Zr420       O741   2.338   1_556  S
Zr420       O424   2.336       .  S
Zr420      O1130   2.339       .  S
Zr421      O1102   2.432       .  S
Zr421       O749   2.347       .  S
Zr421      O1119   2.349   1_554  S
Zr421       O436   2.342   1_554  S
Zr422      O1801   2.433       .  S
Zr422      O1113   2.438       .  S
Zr422      O2511   2.345       .  S
Zr422       O424   2.333       .  S
Zr422      O1828   2.341       .  S
Zr422      O1130   2.339       .  S
O423      Zr1811   2.335   1_456  S
O423      Zr1117   2.349   1_546  S
O423      Zr2510   2.340   1_545  S
C425        C653   1.485       .  S
C426        C637   1.480       .  S
C427        C506   1.480       .  S
C428        C538   1.486       .  S
C429        C554   1.474       .  S
C430        C522   1.465       .  S
C431        C570   1.477       .  S
C432        C586   1.478       .  S
H433        O434   0.967       .  S
O434      Zr1116   2.335   1_545  S
O434      Zr1118   2.331   1_545  S
H435        O436   0.968       .  S
O436      Zr1810   2.345       .  S
O436      Zr1814   2.348       .  S
N437        C442   1.352       .  A
N437        C441   1.352       .  A
N437        H469   1.040   1_545  S
N438        C445   1.348       .  A
N438        C446   1.349       .  A
N439        C444   1.350       .  A
N439        C443   1.352       .  A
N439        H470   1.039   1_545  S
N440        C447   1.350   1_545  A
N440        C448   1.351   1_545  A
C441        C449   1.387       .  A
C441        C457   1.412       .  A
C442        C458   1.413       .  A
C442        C450   1.387       .  A
C443        C451   1.386       .  A
C443        C460   1.411       .  A
C444        C459   1.412       .  A
C444        C452   1.387       .  A
C445        C457   1.409       .  A
C445        C453   1.387   1_545  A
C446        C460   1.409       .  A
C446        C454   1.386   1_545  A
C447        C455   1.386       .  A
C447        C458   1.413   1_565  A
C448        C456   1.386       .  A
C448        C459   1.413   1_565  A
C449        C450   1.376       .  A
C449        H461   1.082       .  S
C450        H462   1.082       .  S
C451        C452   1.376       .  A
C451        H463   1.082       .  S
C452        H464   1.082       .  S
C453        C454   1.373       .  A
C453        H465   1.082       .  S
C454        H466   1.082       .  S
C455        C456   1.374       .  A
C455        H467   1.082       .  S
C456        H468   1.082       .  S
C457        C573   1.483       .  S
C458        C589   1.488       .  S
C459        C602   1.486       .  S
C460        C621   1.485       .  S
N471        C476   1.355       .  A
N471        C475   1.353       .  A
N471        H503   1.040   1_556  S
N472        C479   1.350       .  A
N472        C480   1.351       .  A
N473        C478   1.350       .  A
N473        C477   1.349       .  A
N473        H504   1.040   1_556  S
N474        C481   1.349   1_556  A
N474        C482   1.348   1_556  A
C475        C483   1.386       .  A
C475        C491   1.416       .  A
C476        C492   1.419       .  A
C476        C484   1.387       .  A
C477        C485   1.387       .  A
C477        C494   1.409       .  A
C478        C493   1.411       .  A
C478        C486   1.387       .  A
C479        C491   1.412       .  A
C479        C487   1.387   1_556  A
C480        C494   1.410       .  A
C480        C488   1.385   1_556  A
C481        C489   1.386       .  A
C481        C492   1.411   1_554  A
C482        C490   1.387       .  A
C482        C493   1.410   1_554  A
C483        C484   1.379       .  A
C483        H495   1.082       .  S
C484        H496   1.082       .  S
C485        C486   1.378       .  A
C485        H497   1.083       .  S
C486        H498   1.082       .  S
C487        C488   1.374       .  A
C487        H499   1.082       .  S
C488        H500   1.082       .  S
C489        C490   1.375       .  A
C489        H501   1.082       .  S
C490        H502   1.083       .  S
C491        C509   1.490       .  S
C492        C541   1.494       .  S
C493        C557   1.483   1_556  S
C494        C525   1.484       .  S
C505        C510   1.399       .  A
C505        H512   1.080       .  S
C506        C507   1.417       .  A
C507        C508   1.406       .  A
C507        C514   1.508       .  S
C508        C509   1.405       .  A
C508        H513   1.084       .  S
C510        C511   1.509       .  S
C511        H515   1.108       .  S
C511        H517   1.110       .  S
C514        H518   1.106       .  S
C514        H520   1.110       .  S
C521        C526   1.401       .  A
C521        H528   1.085       .  S
C522        C523   1.414       .  A
C523        C524   1.402       .  A
C523        C530   1.509       .  S
C524        C525   1.402       .  A
C524        H529   1.084       .  S
C526        C527   1.508       .  S
C527        H531   1.111       .  S
C527        H533   1.107       .  S
C530        H534   1.110       .  S
C530        H536   1.111       .  S
C537        C542   1.401       .  A
C537        H544   1.085       .  S
C538        C539   1.413   1_556  A
C539        C540   1.403       .  A
C539        C546   1.498       .  S
C540        C541   1.401   1_554  A
C540        H545   1.084       .  S
C542        C543   1.506       .  S
C543        H547   1.110       .  S
C543        H549   1.111       .  S
C546        H550   1.109       .  S
C546        H552   1.109       .  S
C553        C554   1.400   1_556  A
C553        C558   1.399       .  A
C553        H560   1.080       .  S
C555        C556   1.405       .  A
C555        C562   1.506       .  S
C556        H561   1.084       .  S
C557        C558   1.411   1_554  A
C558        C559   1.509       .  S
C559        H563   1.110       .  S
C559        H564   1.110       .  S
C559        H565   1.108       .  S
C562        H566   1.110       .  S
C562        H567   1.107       .  S
C562        H568   1.111       .  S
C569       C1266   1.401   1_545  A
C569        C574   1.399       .  A
C569        H576   1.084       .  S
C570       C1265   1.403       .  A
C570        C571   1.415       .  A
C571        C572   1.404       .  A
C571        C578   1.509       .  S
C572       C1269   1.404       .  A
C572        H577   1.084       .  S
C573       C1268   1.401   1_545  A
C573        C574   1.414       .  A
C574        C575   1.507       .  S
C575        H579   1.110       .  S
C575        H580   1.110       .  S
C575        H581   1.107       .  S
C578        H582   1.109       .  S
C578        H583   1.109       .  S
C578        H584   1.111       .  S
C585       C1282   1.402   1_545  A
C585        C590   1.402       .  A
C585        H592   1.084       .  S
C586       C1281   1.404       .  A
C586        C587   1.414       .  A
C587        C588   1.403       .  A
C587        C594   1.508       .  S
C588       C1285   1.403       .  A
C588        H593   1.084       .  S
C589       C1284   1.404   1_545  A
C589        C590   1.413       .  A
C590        C591   1.507       .  S
C591        H595   1.111       .  S
C591        H596   1.108       .  S
C591        H597   1.110       .  S
C594        H598   1.110       .  S
C594        H599   1.110       .  S
C594        H600   1.111       .  S
C601       C1298   1.405       .  A
C601        C606   1.405       .  A
C601        H608   1.084       .  S
C602       C1297   1.402       .  A
C602        C603   1.412   1_545  A
C603        C604   1.401       .  A
C603        C610   1.508       .  S
C604        C605   1.401   1_565  A
C604        H609   1.077       .  S
C605       C1302   1.415       .  A
C606       C1301   1.413       .  A
C606        C607   1.508       .  S
C607        H611   1.110       .  S
C607       H1308   1.106       .  S
C607        H613   1.111       .  S
C610        H614   1.110       .  S
C610       H1311   1.110       .  S
C610        H616   1.109       .  S
H612       C1303   1.109       .  S
H615       C1306   1.110       .  S
C617        C618   1.405       .  A
C617        C622   1.404       .  A
C617        H624   1.083       .  S
C618       C1315   1.411   1_545  A
C619       C1314   1.412       .  A
C619        C620   1.400       .  A
C619        C626   1.505       .  S
C620       C1317   1.401       .  A
C620        H625   1.084       .  S
C621       C1316   1.401   1_545  A
C621        C622   1.414       .  A
C622        C623   1.508       .  S
C623        H627   1.111       .  S
C623       H1324   1.110       .  S
C623        H629   1.108       .  S
C626        H630   1.111       .  S
C626       H1327   1.109       .  S
C626        H632   1.111       .  S
H628       C1319   1.108       .  S
H631       C1322   1.109       .  S
C633       C2026   1.403   1_455  A
C633        C638   1.403       .  A
C633        H640   1.084       .  S
C634       C2025   1.399       .  A
C634        C635   1.411       .  A
C634       C1764   1.484       .  S
C635        C636   1.407       .  A
C635        C642   1.506       .  S
C636        C637   1.406       .  A
C636        H641   1.083       .  S
C637       C2030   1.413       .  A
C638       C2029   1.414   1_455  A
C638        C639   1.505       .  S
C639        H643   1.110       .  S
C639        H644   1.110       .  S
C639        H645   1.110       .  S
C642        H646   1.109       .  S
C642        H647   1.111       .  S
C642        H648   1.108       .  S
C649        C650   1.401       .  A
C649        C654   1.403       .  A
C649        H656   1.084       .  S
C650       C2043   1.415       .  A
C650       C1763   1.492       .  S
C651       C2042   1.415   1_455  A
C651        C652   1.407       .  A
C651        C658   1.508       .  S
C652       C2045   1.405   1_455  A
C652        H657   1.084       .  S
C653       C2044   1.406       .  A
C653        C654   1.417       .  A
C654        C655   1.508       .  S
C655        H659   1.111       .  S
C655        H660   1.109       .  S
C655        H661   1.108       .  S
C658        H662   1.110       .  S
C658        H663   1.108       .  S
C658        H664   1.111       .  S
C665        C666   1.404       .  A
C665        C670   1.406       .  A
C665        H672   1.085       .  S
C666       C2059   1.412       .  A
C667       C2058   1.415   1_455  A
C667        C668   1.403       .  A
C667        C674   1.508       .  S
C668       C2061   1.401   1_455  A
C668        H673   1.084       .  S
C669       C2060   1.402       .  A
C669        C670   1.415       .  A
C669       C1762   1.488       .  S
C670        C671   1.507       .  S
C671        H675   1.111       .  S
C671        H676   1.110       .  S
C671        H677   1.108       .  S
C674        H678   1.109       .  S
C674        H679   1.109       .  S
C674        H680   1.111       .  S
C681       C2074   1.405   1_455  A
C681        C686   1.404       .  A
C681        H688   1.085       .  S
C682       C2073   1.402       .  A
C682        C683   1.414       .  A
C682       C1761   1.482       .  S
C683        C684   1.401       .  A
C683        C690   1.508       .  S
C684        C685   1.402       .  A
C684        H689   1.083       .  S
C685       C2078   1.413       .  A
C686       C2077   1.414   1_455  A
C686        C687   1.507       .  S
C687        H691   1.110       .  S
C687        H692   1.107       .  S
C687        H693   1.111       .  S
C690        H694   1.108       .  S
C690        H695   1.110       .  S
C690        H696   1.111       .  S
N697        C702   1.354       .  A
N697        C701   1.355       .  A
N697        H729   1.039   1_655  S
N698        C705   1.350       .  A
N698        C706   1.350       .  A
N699        C704   1.353       .  A
N699        C703   1.351       .  A
N699        H730   1.041   1_655  S
N700        C707   1.350       .  A
N700        C708   1.351       .  A
C701        C709   1.387       .  A
C701        C717   1.419       .  A
C702        C718   1.421   1_655  A
C702        C710   1.388       .  A
C703        C711   1.386       .  A
C703        C720   1.411       .  A
C704        C719   1.414   1_655  A
C704        C712   1.387       .  A
C705        C717   1.411       .  A
C705        C713   1.387   1_655  A
C706        C720   1.409       .  A
C706        C714   1.386   1_655  A
C707        C715   1.387       .  A
C707        C718   1.413       .  A
C708        C716   1.386       .  A
C708        C719   1.413       .  A
C709        C710   1.380       .  A
C709        H721   1.082       .  S
C710        H722   1.082       .  S
C711        C712   1.378       .  A
C711        H723   1.082       .  S
C712        H724   1.082       .  S
C713        C714   1.373       .  A
C713        H725   1.082       .  S
C714        H726   1.082       .  S
C715        C716   1.373       .  A
C715        H727   1.082       .  S
C716        H728   1.082       .  S
C717       C2422   1.494       .  S
C718       C2409   1.491       .  S
C719       C2390   1.493       .  S
C720       C2374   1.485       .  S
O731        C742   1.292       .  A
O731      Zr1115   2.437       .  S
O732        C743   1.291       .  A
O732      Zr1114   2.433       .  S
O733        C744   1.290       .  A
O734        C745   1.292       .  A
O734      Zr1435   2.438   1_455  S
O735      Zr1117   2.429       .  S
O736      Zr1116   2.422   1_544  S
O737        C743   1.294       .  A
O737       Zr739   2.447       .  S
O738        C742   1.292       .  A
Zr739      O1430   2.444   1_565  S
Zr739      O2132   2.349       .  S
Zr739      O1445   2.340   1_565  S
Zr739       O747   2.350       .  S
O740      Zr2131   2.354   1_465  S
O740      Zr2506   2.338   1_455  S
O740      Zr1117   2.336       .  S
O741      Zr1115   2.339       .  S
C742       C1033   1.476       .  S
C743       C1014   1.478       .  S
C744        C966   1.467       .  S
C745        C953   1.476       .  S
H746        O747   0.968       .  S
O747      Zr1114   2.355       .  S
O747      Zr1116   2.341   1_554  S
H748        O749   0.967       .  S
O749      Zr1435   2.340   1_455  S
O749      Zr2507   2.337   1_554  S
O750        C773   1.294       .  A
O750       Zr766   2.451       .  S
O751        C774   1.290       .  A
O751       Zr767   2.429       .  S
O752        C775   1.293       .  A
O752       Zr768   2.439       .  S
O753        C776   1.293       .  A
O753       Zr769   2.445       .  S
O754        C777   1.287       .  A
O755        C778   1.293       .  A
O756        C779   1.292       .  A
O756       Zr770   2.438       .  S
O757        C780   1.295   1_545  A
O757      Zr2162   2.451   1_545  S
O758        C779   1.292       .  A
O758       Zr768   2.440       .  S
O759        C780   1.289       .  A
O759       Zr769   2.424       .  S
O760        C775   1.291       .  A
O760       Zr766   2.435       .  S
O761        C778   1.292       .  A
O761       Zr767   2.439       .  S
O762        C777   1.293       .  A
O762      Zr2159   2.445       .  S
O763        C776   1.292       .  A
O763      Zr2158   2.438       .  S
O764        C773   1.290       .  A
O764       Zr770   2.430       .  S
O765        C774   1.291       .  A
Zr766      O1080   2.439       .  S
Zr766      O2155   2.450       .  S
Zr766      O2480   2.344       .  S
Zr766      O1095   2.356       .  S
Zr766       O772   2.337       .  S
Zr766      O2176   2.340       .  S
Zr767      O1079   2.444       .  S
Zr767      O2154   2.452       .  S
Zr767      O1089   2.342       .  S
Zr767      O2489   2.339       .  S
Zr767      O2163   2.336       .  S
Zr767       O782   2.344       .  S
Zr768      O1084   2.449   1_565  S
Zr768      O1095   2.346       .  S
Zr768       O772   2.340       .  S
Zr769      O1083   2.441       .  S
Zr769      O1088   2.337       .  S
Zr769       O784   2.344       .  S
Zr770      O2149   2.436   1_565  S
Zr770      O1467   2.337   1_565  S
Zr770       O772   2.335       .  S
Zr770      O2176   2.345       .  S
O771      Zr2159   2.337       .  S
O771      Zr1466   2.345       .  S
C773       C1001   1.481       .  S
C774        C985   1.468       .  S
C775        C854   1.475       .  S
C776        C886   1.480       .  S
C777        C902   1.469       .  S
C778        C870   1.473       .  S
C779        C918   1.477       .  S
C780        C934   1.476   1_565  S
H781        O782   0.966       .  S
H783        O784   0.968       .  S
O784      Zr2158   2.342       .  S
O784      Zr2162   2.344       .  S
N785        C790   1.353       .  A
N785        C789   1.354       .  A
N785        H817   1.040       .  S
N786        C793   1.350       .  A
N786        C794   1.348       .  A
N787        C792   1.353       .  A
N787        C791   1.352       .  A
N787        H818   1.040       .  S
N788        C795   1.350       .  A
N788        C796   1.351       .  A
C789        C797   1.387       .  A
C789        C805   1.415       .  A
C790        C806   1.414       .  A
C790        C798   1.386       .  A
C791        C799   1.387       .  A
C791        C808   1.413       .  A
C792        C807   1.415       .  A
C792        C800   1.387       .  A
C793        C805   1.411       .  A
C793        C801   1.386       .  A
C794        C808   1.409       .  A
C794        C802   1.387       .  A
C795        C803   1.386       .  A
C795        C806   1.412       .  A
C796        C804   1.386       .  A
C796        C807   1.413       .  A
C797        C798   1.375       .  A
C797        H809   1.082       .  S
C798        H810   1.082       .  S
C799        C800   1.376       .  A
C799        H811   1.082       .  S
C800        H812   1.082       .  S
C801        C802   1.372       .  A
C801        H813   1.082       .  S
C802        H814   1.083       .  S
C803        C804   1.374       .  A
C803        H815   1.082       .  S
C804        H816   1.082       .  S
C805        C921   1.490       .  S
C806        C937   1.489       .  S
C807        C950   1.491       .  S
C808        C969   1.480       .  S
N819        C824   1.353       .  A
N819        C823   1.351       .  A
N819        H851   1.041       .  S
N820        C827   1.352       .  A
N820        C828   1.352       .  A
N821        C826   1.352       .  A
N821        C825   1.353       .  A
N821        H852   1.040       .  S
N822        C829   1.349       .  A
N822        C830   1.348       .  A
C823        C831   1.387       .  A
C823        C839   1.412       .  A
C824        C840   1.412       .  A
C824        C832   1.386       .  A
C825        C833   1.387       .  A
C825        C842   1.414       .  A
C826        C841   1.412       .  A
C826        C834   1.387       .  A
C827        C839   1.416       .  A
C827        C835   1.387       .  A
C828        C842   1.414       .  A
C828        C836   1.386       .  A
C829        C837   1.386       .  A
C829        C840   1.409       .  A
C830        C838   1.386       .  A
C830        C841   1.408       .  A
C831        C832   1.376       .  A
C831        H843   1.082       .  S
C832        H844   1.082       .  S
C833        C834   1.374       .  A
C833        H845   1.082       .  S
C834        H846   1.082       .  S
C835        C836   1.375       .  A
C835        H847   1.082       .  S
C836        H848   1.082       .  S
C837        C838   1.374       .  A
C837        H849   1.082       .  S
C838        H850   1.082       .  S
C839        C857   1.491       .  S
C840        C889   1.488       .  S
C841        C905   1.482       .  S
C842        C873   1.490       .  S
C853       C1202   1.399   1_554  A
C853        C858   1.400       .  A
C853        H860   1.083       .  S
C854       C1201   1.400       .  A
C854        C855   1.414       .  A
C855        C856   1.404       .  A
C855        C862   1.508       .  S
C856        C857   1.404       .  A
C856        H861   1.084       .  S
C857       C1206   1.415       .  A
C858       C1205   1.411   1_554  A
C858        C859   1.506       .  S
C859        H863   1.111       .  S
C859       H1212   1.109       .  S
C859        H865   1.111       .  S
C862        H866   1.111       .  S
C862       H1215   1.109       .  S
C862        H868   1.108       .  S
H864       C1207   1.110       .  S
H867       C1210   1.111       .  S
C869       C1218   1.402   1_554  A
C869        C874   1.406       .  A
C869        H876   1.084       .  S
C870       C1217   1.402       .  A
C870        C871   1.416       .  A
C871        C872   1.404       .  A
C871        C878   1.509       .  S
C872        C873   1.404       .  A
C872        H877   1.085       .  S
C873       C1222   1.413       .  A
C874       C1221   1.416   1_554  A
C874        C875   1.508       .  S
C875        H879   1.111       .  S
C875       H1228   1.109       .  S
C875        H881   1.110       .  S
C878        H882   1.108       .  S
C878       H1231   1.110       .  S
C878        H884   1.111       .  S
H880       C1223   1.109       .  S
H883       C1226   1.109       .  S
C885       C1234   1.404       .  A
C885        C890   1.406       .  A
C885        H892   1.084       .  S
C886       C1233   1.405       .  A
C886        C887   1.413       .  A
C887        C888   1.401       .  A
C887        C894   1.502       .  S
C888        C889   1.400       .  A
C888        H893   1.084       .  S
C889       C1238   1.414       .  A
C890       C1237   1.420       .  A
C890        C891   1.508       .  S
C891        H895   1.111       .  S
C891       H1244   1.107       .  S
C891        H897   1.110       .  S
C894        H898   1.110       .  S
C894       H1247   1.109       .  S
C894        H900   1.109       .  S
H896       C1239   1.110       .  S
H899       C1242   1.109       .  S
C901        C902   1.397       .  A
C901        C906   1.396       .  A
C901        H908   1.079       .  S
C902       C1251   1.413       .  A
C903       C1250   1.414       .  A
C903        C904   1.406       .  A
C903        C910   1.507       .  S
C904       C1253   1.405   1_554  A
C904        H909   1.084       .  S
C905       C1252   1.403       .  A
C905        C906   1.414       .  A
C906        C907   1.508       .  S
C907        H911   1.111       .  S
C907        H912   1.107       .  S
C907        H913   1.111       .  S
C910        H914   1.109       .  S
C910        H915   1.109       .  S
C910        H916   1.111       .  S
C917        C922   1.401       .  A
C917        H924   1.085       .  S
C918        C919   1.414       .  A
C919        C920   1.402       .  A
C919        C926   1.508       .  S
C920        H925   1.084       .  S
C921        C922   1.417       .  A
C922        C923   1.508       .  S
C923        H927   1.110       .  S
C923        H928   1.107       .  S
C923        H929   1.110       .  S
C926        H930   1.109       .  S
C926        H931   1.107       .  S
C926        H932   1.111       .  S
C933        C938   1.405       .  A
C933        H940   1.084       .  S
C934        C935   1.416   1_545  A
C935        C936   1.402       .  A
C935        C942   1.509       .  S
C936        H941   1.084       .  S
C937        C938   1.413       .  A
C938        C939   1.507       .  S
C939        H943   1.111       .  S
C939        H944   1.109       .  S
C939        H945   1.110       .  S
C942        H946   1.110       .  S
C942        H947   1.110       .  S
C942        H948   1.111       .  S
C949        C954   1.405       .  A
C949        H956   1.084       .  S
C950        C951   1.412       .  A
C951        C952   1.399       .  A
C951        C958   1.508       .  S
C952        C953   1.399       .  A
C952        H957   1.076       .  S
C954        C955   1.508       .  S
C955        H959   1.109       .  S
C955        H961   1.110       .  S
C958        H962   1.108       .  S
C958        H964   1.110       .  S
C965        C966   1.400       .  A
C965        C970   1.400       .  A
C965        H972   1.085       .  S
C967        C968   1.400       .  A
C967        C974   1.507       .  S
C968        H973   1.084       .  S
C969        C970   1.415       .  A
C970        C971   1.507       .  S
C971        H975   1.111       .  S
C971        H977   1.108       .  S
C974        H978   1.110       .  S
C974        H980   1.111       .  S
C981       C2374   1.401   1_455  A
C981        C986   1.400       .  A
C981        H988   1.084       .  S
C982       C2373   1.400       .  A
C982        C983   1.412       .  A
C982       C2112   1.480       .  S
C983        C984   1.403       .  A
C983        C990   1.506       .  S
C984        C985   1.403       .  A
C984        H989   1.084       .  S
C985       C2378   1.411       .  A
C986       C2377   1.411   1_455  A
C986        C987   1.503       .  S
C987        H991   1.109       .  S
C987        H992   1.111       .  S
C987        H993   1.111       .  S
C990        H994   1.109       .  S
C990        H995   1.110       .  S
C990        H996   1.110       .  S
C997        C998   1.403       .  A
C997       C1002   1.404       .  A
C997       H1004   1.084       .  S
C998       C2391   1.416       .  A
C998       C2111   1.493       .  S
C999       C2390   1.416       .  A
C999       C1000   1.406       .  A
C999       C1006   1.508       .  S
C1000      C2393   1.405       .  A
C1000      H1005   1.084       .  S
C1001      C2392   1.403       .  A
C1001      C1002   1.417       .  A
C1002      C1003   1.508       .  S
C1003      H1007   1.111       .  S
C1003      H1008   1.109       .  S
C1003      H1009   1.108       .  S
C1006      H1010   1.108       .  S
C1006      H1011   1.110       .  S
C1006      H1012   1.111       .  S
C1013      C1014   1.403       .  A
C1013      C1018   1.403       .  A
C1013      H1020   1.085       .  S
C1014      C2407   1.416       .  A
C1015      C2406   1.414       .  A
C1015      C1016   1.405       .  A
C1015      C1022   1.508       .  S
C1016      C2409   1.402       .  A
C1016      H1021   1.084       .  S
C1017      C2408   1.403       .  A
C1017      C1018   1.415       .  A
C1017      C2110   1.490       .  S
C1018      C1019   1.508       .  S
C1019      H1023   1.111       .  S
C1019      H1024   1.110       .  S
C1019      H1025   1.108       .  S
C1022      H1026   1.111       .  S
C1022      H1027   1.109       .  S
C1022      H1028   1.111       .  S
C1029      C2422   1.403   1_455  A
C1029      C1034   1.403       .  A
C1029      H1036   1.084       .  S
C1030      C2421   1.403       .  A
C1030      C1031   1.416       .  A
C1030      C2109   1.490       .  S
C1031      C1032   1.402       .  A
C1031      C1038   1.508       .  S
C1032      C1033   1.404       .  A
C1032      H1037   1.085       .  S
C1033      C2426   1.417       .  A
C1034      C2425   1.414   1_455  A
C1034      C1035   1.507       .  S
C1035      H1039   1.109       .  S
C1035      H1040   1.109       .  S
C1035      H1041   1.111       .  S
C1038      H1042   1.107       .  S
C1038      H1043   1.110       .  S
C1038      H1044   1.111       .  S
N1045      C1050   1.354       .  A
N1045      C1049   1.356       .  A
N1045      H1077   1.040   1_655  S
N1046      C1053   1.354       .  A
N1046      C1054   1.352       .  A
N1047      C1052   1.353       .  A
N1047      C1051   1.350       .  A
N1047      H1078   1.036   1_655  S
N1048      C1055   1.349       .  A
N1048      C1056   1.351       .  A
C1049      C1057   1.385       .  A
C1049      C1065   1.417       .  A
C1050      C1066   1.418   1_655  A
C1050      C1058   1.388       .  A
C1051      C1059   1.388       .  A
C1051      C1068   1.414       .  A
C1052      C1067   1.416   1_655  A
C1052      C1060   1.388       .  A
C1053      C1065   1.415       .  A
C1053      C1061   1.385   1_655  A
C1054      C1068   1.415       .  A
C1054      C1062   1.387   1_655  A
C1055      C1063   1.387       .  A
C1055      C1066   1.412       .  A
C1056      C1064   1.386       .  A
C1056      C1067   1.413       .  A
C1057      C1058   1.377       .  A
C1057      H1069   1.082       .  S
C1058      H1070   1.082       .  S
C1059      C1060   1.376       .  A
C1059      H1071   1.083       .  S
C1060      H1072   1.083       .  S
C1061      C1062   1.372       .  A
C1061      H1073   1.082       .  S
C1062      H1074   1.082       .  S
C1063      C1064   1.374       .  A
C1063      H1075   1.082       .  S
C1064      H1076   1.082       .  S
C1065      C2770   1.503       .  S
C1066      C2757   1.487       .  S
C1067      C2738   1.488       .  S
C1068      C2722   1.483       .  S
O1079      C1090   1.293       .  A
O1080      C1091   1.292       .  A
O1081      C1092   1.290       .  A
O1082      C1093   1.291       .  A
O1082     Zr1783   2.434   1_455  S
O1085      C1091   1.294       .  A
O1085     Zr1087   2.450       .  S
O1086      C1090   1.295       .  A
Zr1087     O1778   2.442   1_565  S
Zr1087     O2480   2.346       .  S
Zr1087     O1793   2.340   1_565  S
Zr1087     O1095   2.346       .  S
O1088     Zr2479   2.346   1_565  S
O1088     Zr2158   2.345       .  S
C1090      C1381   1.487       .  S
C1091      C1362   1.477       .  S
C1092      C1314   1.469       .  S
C1093      C1301   1.472       .  S
H1094      O1095   0.966       .  S
H1096      O1097   0.966       .  S
O1097     Zr1783   2.343   1_455  S
O1097     Zr2159   2.333       .  S
O1098      C1121   1.292       .  A
O1098     Zr1114   2.439   1_556  S
O1099      C1122   1.291       .  A
O1099     Zr1115   2.436   1_556  S
O1100      C1123   1.293       .  A
O1100     Zr1116   2.442       .  S
O1101      C1124   1.291       .  A
O1101     Zr1117   2.441       .  S
O1102      C1125   1.290       .  A
O1103      C1126   1.293       .  A
O1104      C1127   1.293       .  A
O1104     Zr1118   2.443       .  S
O1105      C1128   1.294       .  A
O1105     Zr2510   2.446       .  S
O1106      C1127   1.288       .  A
O1106     Zr1116   2.419       .  S
O1107      C1128   1.290       .  A
O1107     Zr1117   2.433   1_556  S
O1108      C1123   1.290       .  A
O1108     Zr1114   2.430   1_556  S
O1109      C1126   1.291       .  A
O1109     Zr1115   2.431       .  S
O1110      C1125   1.295   1_556  A
O1110     Zr2507   2.454       .  S
O1111      C1124   1.294       .  A
O1111     Zr2506   2.450   1_455  S
O1112      C1121   1.291       .  A
O1112     Zr1118   2.436       .  S
O1113      C1122   1.292       .  A
Zr1114     O2503   2.440       .  S
Zr1114     O2132   2.342       .  S
Zr1114     O1120   2.333   1_554  S
Zr1114     O2524   2.338   1_554  S
Zr1115     O2502   2.435       .  S
Zr1115     O2141   2.335       .  S
Zr1115     O2511   2.338   1_554  S
Zr1115     O1130   2.342   1_554  S
Zr1116     O1120   2.332       .  S
Zr1117     O1132   2.332   1_554  S
Zr1118     O2497   2.440   1_565  S
Zr1118     O1815   2.348   1_565  S
Zr1118     O1120   2.335       .  S
Zr1118     O2524   2.348       .  S
O1119     Zr2507   2.342       .  S
O1119     Zr1814   2.342       .  S
C1121      C1349   1.476       .  S
C1122      C1333   1.474       .  S
C1123      C1202   1.471       .  S
C1124      C1234   1.488   1_554  S
C1125      C1250   1.476       .  S
C1126      C1218   1.474   1_554  S
C1127      C1266   1.468       .  S
C1128      C1282   1.474       .  S
H1129      O1130   0.965       .  S
H1131      O1132   0.965       .  S
O1132     Zr2506   2.339   1_456  S
O1132     Zr2510   2.346       .  S
N1133      C1138   1.352       .  A
N1133      C1137   1.353       .  A
N1133      H1165   1.039       .  S
N1134      C1141   1.350       .  A
N1134      C1142   1.348       .  A
N1135      C1140   1.353       .  A
N1135      C1139   1.352       .  A
N1135      H1166   1.039       .  S
N1136      C1143   1.351       .  A
N1136      C1144   1.352       .  A
C1137      C1145   1.387       .  A
C1137      C1153   1.415       .  A
C1138      C1154   1.415       .  A
C1138      C1146   1.387       .  A
C1139      C1147   1.388       .  A
C1139      C1156   1.415       .  A
C1140      C1155   1.413       .  A
C1140      C1148   1.386       .  A
C1141      C1153   1.411       .  A
C1141      C1149   1.386       .  A
C1142      C1156   1.410       .  A
C1142      C1150   1.387       .  A
C1143      C1151   1.387       .  A
C1143      C1154   1.414       .  A
C1144      C1152   1.385       .  A
C1144      C1155   1.411       .  A
C1145      C1146   1.377       .  A
C1145      H1157   1.082       .  S
C1146      H1158   1.082       .  S
C1147      C1148   1.377       .  A
C1147      H1159   1.082       .  S
C1148      H1160   1.082       .  S
C1149      C1150   1.373       .  A
C1149      H1161   1.082       .  S
C1150      H1162   1.082       .  S
C1151      C1152   1.371       .  A
C1151      H1163   1.082       .  S
C1152      H1164   1.082       .  S
C1153      C1269   1.490       .  S
C1154      C1285   1.489       .  S
C1155      C1298   1.489       .  S
C1156      C1317   1.483       .  S
N1167      C1172   1.356       .  A
N1167      C1171   1.352       .  A
N1167      H1199   1.037       .  S
N1168      C1175   1.351       .  A
N1168      C1176   1.354       .  A
N1169      C1174   1.350       .  A
N1169      C1173   1.352       .  A
N1169      H1200   1.039   1_556  S
N1170      C1177   1.352       .  A
N1170      C1178   1.350       .  A
C1171      C1179   1.388       .  A
C1171      C1187   1.417       .  A
C1172      C1188   1.422       .  A
C1172      C1180   1.388       .  A
C1173      C1181   1.386       .  A
C1173      C1190   1.411       .  A
C1174      C1189   1.412       .  A
C1174      C1182   1.388       .  A
C1175      C1187   1.415       .  A
C1175      C1183   1.388   1_556  A
C1176      C1190   1.414       .  A
C1176      C1184   1.385   1_556  A
C1177      C1185   1.386   1_556  A
C1177      C1188   1.415       .  A
C1178      C1186   1.385   1_556  A
C1178      C1189   1.412       .  A
C1179      C1180   1.379       .  A
C1179      H1191   1.083       .  S
C1180      H1192   1.082       .  S
C1181      C1182   1.377       .  A
C1181      H1193   1.083       .  S
C1182      H1194   1.082       .  S
C1183      C1184   1.374       .  A
C1183      H1195   1.082       .  S
C1184      H1196   1.082       .  S
C1185      C1186   1.373       .  A
C1185      H1197   1.082       .  S
C1186      H1198   1.082       .  S
C1187      C1205   1.485       .  S
C1188      C1237   1.500       .  S
C1189      C1253   1.483       .  S
C1190      C1221   1.492       .  S
C1201      C1206   1.401       .  A
C1201      H1208   1.079       .  S
C1202      C1203   1.414       .  A
C1203      C1204   1.404       .  A
C1203      C1210   1.505       .  S
C1204      C1205   1.403       .  A
C1204      H1209   1.084       .  S
C1206      C1207   1.509       .  S
C1207      H1211   1.108       .  S
C1207      H1213   1.110       .  S
C1210      H1214   1.103       .  S
C1210      H1216   1.109       .  S
C1217      C1222   1.402       .  A
C1217      H1224   1.085       .  S
C1218      C1219   1.413       .  A
C1219      C1220   1.404       .  A
C1219      C1226   1.509       .  S
C1220      C1221   1.403       .  A
C1220      H1225   1.084       .  S
C1222      C1223   1.507       .  S
C1223      H1227   1.111       .  S
C1223      H1229   1.110       .  S
C1226      H1230   1.111       .  S
C1226      H1232   1.110       .  S
C1233      C1238   1.406       .  A
C1233      H1240   1.084       .  S
C1234      C1235   1.415   1_556  A
C1235      C1236   1.404       .  A
C1235      C1242   1.502       .  S
C1236      C1237   1.403   1_554  A
C1236      H1241   1.084       .  S
C1238      C1239   1.507       .  S
C1239      H1243   1.110       .  S
C1239      H1245   1.108       .  S
C1242      H1246   1.110       .  S
C1242      H1248   1.109       .  S
C1249      C1250   1.398   1_556  A
C1249      C1254   1.396       .  A
C1249      H1256   1.074       .  S
C1251      C1252   1.402       .  A
C1251      C1258   1.505       .  S
C1252      H1257   1.084       .  S
C1253      C1254   1.412       .  A
C1254      C1255   1.509       .  S
C1255      H1259   1.110       .  S
C1255      H1260   1.107       .  S
C1255      H1261   1.111       .  S
C1258      H1262   1.110       .  S
C1258      H1263   1.105       .  S
C1258      H1264   1.111       .  S
C1265      C1270   1.402       .  A
C1265      H1272   1.085       .  S
C1266      C1267   1.416       .  A
C1267      C1268   1.400       .  A
C1267      C1274   1.508       .  S
C1268      H1273   1.085       .  S
C1269      C1270   1.416       .  A
C1270      C1271   1.508       .  S
C1271      H1275   1.110       .  S
C1271      H1276   1.107       .  S
C1271      H1277   1.110       .  S
C1274      H1278   1.110       .  S
C1274      H1279   1.105       .  S
C1274      H1280   1.111       .  S
C1281      C1286   1.404       .  A
C1281      H1288   1.084       .  S
C1282      C1283   1.415       .  A
C1283      C1284   1.405       .  A
C1283      C1290   1.508       .  S
C1284      H1289   1.084       .  S
C1285      C1286   1.413       .  A
C1286      C1287   1.508       .  S
C1287      H1291   1.111       .  S
C1287      H1292   1.108       .  S
C1287      H1293   1.110       .  S
C1290      H1294   1.110       .  S
C1290      H1295   1.110       .  S
C1290      H1296   1.111       .  S
C1297      C1302   1.403       .  A
C1297      H1304   1.084       .  S
C1298      C1299   1.412       .  A
C1299      C1300   1.401       .  A
C1299      C1306   1.506       .  S
C1300      C1301   1.400       .  A
C1300      H1305   1.081       .  S
C1302      C1303   1.507       .  S
C1303      H1307   1.109       .  S
C1303      H1309   1.111       .  S
C1306      H1310   1.111       .  S
C1306      H1312   1.109       .  S
C1313      C1314   1.402       .  A
C1313      C1318   1.401       .  A
C1313      H1320   1.084       .  S
C1315      C1316   1.401       .  A
C1315      C1322   1.502       .  S
C1316      H1321   1.084       .  S
C1317      C1318   1.413       .  A
C1318      C1319   1.507       .  S
C1319      H1323   1.109       .  S
C1319      H1325   1.110       .  S
C1322      H1326   1.111       .  S
C1322      H1328   1.110       .  S
C1329      C2722   1.398   1_455  A
C1329      C1334   1.398       .  A
C1329      H1336   1.085       .  S
C1330      C2721   1.401       .  A
C1330      C1331   1.412       .  A
C1330      C2460   1.485       .  S
C1331      C1332   1.403       .  A
C1331      C1338   1.506       .  S
C1332      C1333   1.402       .  A
C1332      H1337   1.084       .  S
C1333      C2726   1.412       .  A
C1334      C2725   1.410   1_455  A
C1334      C1335   1.498       .  S
C1335      H1339   1.111       .  S
C1335      H1340   1.111       .  S
C1335      H1341   1.108       .  S
C1338      H1342   1.109       .  S
C1338      H1343   1.110       .  S
C1338      H1344   1.110       .  S
C1345      C1346   1.403       .  A
C1345      C1350   1.403       .  A
C1345      H1352   1.084       .  S
C1346      C2739   1.414       .  A
C1346      C2459   1.490       .  S
C1347      C2738   1.415       .  A
C1347      C1348   1.404       .  A
C1347      C1354   1.507       .  S
C1348      C2741   1.403   1_455  A
C1348      H1353   1.085       .  S
C1349      C2740   1.403       .  A
C1349      C1350   1.416       .  A
C1350      C1351   1.509       .  S
C1351      H1355   1.109       .  S
C1351      H1356   1.106       .  S
C1351      H1357   1.111       .  S
C1354      H1358   1.108       .  S
C1354      H1359   1.110       .  S
C1354      H1360   1.111       .  S
C1361      C1362   1.403       .  A
C1361      C1366   1.406       .  A
C1361      H1368   1.084       .  S
C1362      C2755   1.414       .  A
C1363      C2754   1.415       .  A
C1363      C1364   1.402       .  A
C1363      C1370   1.509       .  S
C1364      C2757   1.400       .  A
C1364      H1369   1.084       .  S
C1365      C2756   1.401       .  A
C1365      C1366   1.413       .  A
C1365      C2458   1.488       .  S
C1366      C1367   1.506       .  S
C1367      H1371   1.111       .  S
C1367      H1372   1.109       .  S
C1367      H1373   1.110       .  S
C1370      H1374   1.108       .  S
C1370      H1375   1.110       .  S
C1370      H1376   1.111       .  S
C1377      C2770   1.407   1_455  A
C1377      C1382   1.409       .  A
C1377      H1384   1.084       .  S
C1378      C2769   1.403       .  A
C1378      C1379   1.417       .  A
C1378      C2457   1.497       .  S
C1379      C1380   1.405       .  A
C1379      C1386   1.507       .  S
C1380      C1381   1.405       .  A
C1380      H1385   1.084       .  S
C1381      C2774   1.420       .  A
C1382      C2773   1.417   1_455  A
C1382      C1383   1.508       .  S
C1383      H1387   1.109       .  S
C1383      H1388   1.109       .  S
C1383      H1389   1.111       .  S
C1386      H1390   1.109       .  S
C1386      H1391   1.107       .  S
C1386      H1392   1.111       .  S
N1393      C1398   1.353       .  A
N1393      C1397   1.353       .  A
N1393      H1425   1.041       .  S
N1394      C1401   1.348       .  A
N1394      C1402   1.349       .  A
N1395      C1400   1.352       .  A
N1395      C1399   1.352       .  A
N1395      H1426   1.041       .  S
N1396      C1403   1.347       .  A
N1396      C1404   1.347       .  A
C1397      C1405   1.386       .  A
C1397      C1413   1.415       .  A
C1398      C1414   1.414       .  A
C1398      C1406   1.386       .  A
C1399      C1407   1.386       .  A
C1399      C1416   1.412       .  A
C1400      C1415   1.415       .  A
C1400      C1408   1.387       .  A
C1401      C1413   1.410       .  A
C1401      C1409   1.387       .  A
C1402      C1416   1.408       .  A
C1402      C1410   1.386       .  A
C1403      C1411   1.386       .  A
C1403      C1414   1.407       .  A
C1404      C1412   1.388       .  A
C1404      C1415   1.408       .  A
C1405      C1406   1.378       .  A
C1405      H1417   1.082       .  S
C1406      H1418   1.082       .  S
C1407      C1408   1.380       .  A
C1407      H1419   1.082       .  S
C1408      H1420   1.082       .  S
C1409      C1410   1.374       .  A
C1409      H1421   1.082       .  S
C1410      H1422   1.082       .  S
C1411      C1412   1.374       .  A
C1411      H1423   1.082       .  S
C1412      H1424   1.083       .  S
O1427      C1438   1.286       .  A
O1427     Zr1811   2.406       .  S
O1428      C1439   1.295       .  A
O1428     Zr1810   2.452   1_654  S
O1429      C1440   1.295       .  A
O1429     Zr2131   2.452       .  S
O1430      C1441   1.293       .  A
O1431      C2137   1.294       .  A
O1431     Zr1813   2.449       .  S
O1432      C2136   1.292       .  A
O1432     Zr1812   2.440   1_554  S
O1433      C1439   1.290       .  A
O1433     Zr1435   2.427       .  S
O1434      C1438   1.296       .  A
O1434     Zr2131   2.459       .  S
Zr1435     O2125   2.442       .  S
Zr1435     O2130   2.444       .  S
Zr1435     O2133   2.330       .  S
Zr1435     O1443   2.345       .  S
O1436     Zr1813   2.339       .  S
O1437     Zr2131   2.328       .  S
O1437     Zr1811   2.340       .  S
O1437     Zr2508   2.333   1_545  S
C1438      C1729   1.472       .  S
C1439      C1710   1.474       .  S
C1440      C1662   1.485       .  S
C1440      O2128   1.291   1_545  A
C1441      C1649   1.486       .  S
C1441      O2127   1.295       .  A
H1442      O1443   0.965       .  S
O1443     Zr1810   2.348   1_654  S
O1443     Zr1812   2.336   1_554  S
H1444      O1445   0.968       .  S
O1445     Zr2509   2.336   1_545  S
O1446      C1469   1.292       .  A
O1446     Zr1462   2.438   1_655  S
O1447      C1470   1.292       .  A
O1447     Zr1463   2.442       .  S
O1448      C1471   1.293       .  A
O1448     Zr1464   2.450       .  S
O1449      C1472   1.292       .  A
O1449     Zr1465   2.443       .  S
O1450      C1473   1.291       .  A
O1450     Zr2161   2.435   1_545  S
O1451      C1474   1.291       .  A
O1451     Zr2160   2.436   1_545  S
O1452      C1475   1.292       .  A
O1452     Zr1466   2.439   1_655  S
O1453      C1476   1.292       .  A
O1454      C1475   1.290       .  A
O1454     Zr1464   2.431       .  S
O1455      C1476   1.289       .  A
O1455     Zr1465   2.422       .  S
O1456      C1471   1.288       .  A
O1456     Zr1462   2.418   1_655  S
O1457      C1474   1.291       .  A
O1457     Zr1463   2.437   1_655  S
O1458      C1473   1.291       .  A
O1459      C1472   1.292       .  A
O1460      C1469   1.293       .  A
O1460     Zr1466   2.445   1_655  S
O1461      C1470   1.294       .  A
O1461     Zr2162   2.450   1_545  S
Zr1462     O1776   2.425   1_455  S
Zr1462     O1791   2.351   1_455  S
Zr1462     O1468   2.339   1_455  S
Zr1463     O1775   2.439       .  S
Zr1463     O1785   2.348   1_455  S
Zr1463     O1478   2.338   1_455  S
Zr1464     O1780   2.428       .  S
Zr1464     O2147   2.450       .  S
Zr1464     O2481   2.338       .  S
Zr1464     O1791   2.337       .  S
Zr1464     O1468   2.338       .  S
Zr1464     O2174   2.340       .  S
Zr1465     O1779   2.438       .  S
Zr1465     O2146   2.427       .  S
Zr1465     O1784   2.338       .  S
Zr1465     O2489   2.341       .  S
Zr1465     O2163   2.346       .  S
Zr1465     O1480   2.337       .  S
Zr1466     O2157   2.438       .  S
Zr1466     O1468   2.337   1_455  S
Zr1466     O2174   2.340   1_455  S
O1467     Zr2161   2.346   1_545  S
C1469      C1697   1.481       .  S
C1470      C1681   1.482   1_455  S
C1471      C1550   1.465       .  S
C1472      C1582   1.480       .  S
C1473      C1598   1.476       .  S
C1474      C1566   1.467       .  S
C1475      C1614   1.476       .  S
C1476      C1630   1.467       .  S
H1477      O1478   0.965       .  S
O1478     Zr2160   2.342   1_545  S
O1478     Zr2162   2.334   1_645  S
H1479      O1480   0.967       .  S
N1481      C1486   1.350   1_565  A
N1481      C1485   1.352   1_565  A
N1481      H1513   1.040       .  S
N1482      C1489   1.349   1_545  A
N1482      C1490   1.348   1_545  A
N1483      C1488   1.353       .  A
N1483      C1487   1.352       .  A
N1483      H1514   1.042   1_545  S
N1484      C1491   1.346   1_545  A
N1484      C1492   1.350   1_545  A
C1485      C1493   1.386       .  A
C1485      C1501   1.412   1_545  A
C1486      C1502   1.412       .  A
C1486      C1494   1.388       .  A
C1487      C1495   1.386       .  A
C1487      C1504   1.413       .  A
C1488      C1503   1.413       .  A
C1488      C1496   1.385       .  A
C1489      C1501   1.410       .  A
C1489      C1497   1.386       .  A
C1490      C1504   1.411   1_565  A
C1490      C1498   1.387       .  A
C1491      C1499   1.387       .  A
C1491      C1502   1.409   1_565  A
C1492      C1500   1.386       .  A
C1492      C1503   1.410   1_565  A
C1493      C1494   1.377       .  A
C1493      H1505   1.082       .  S
C1494      H1506   1.082       .  S
C1495      C1496   1.378       .  A
C1495      H1507   1.082       .  S
C1496      H1508   1.082       .  S
C1497      C1498   1.376       .  A
C1497      H1509   1.082       .  S
C1498      H1510   1.082       .  S
C1499      C1500   1.376       .  A
C1499      H1511   1.083       .  S
C1500      H1512   1.082       .  S
C1501      C1617   1.487       .  S
C1502      C1633   1.478       .  S
C1503      C1646   1.494       .  S
C1504      C1665   1.487       .  S
N1515      C1520   1.352       .  A
N1515      C1519   1.349       .  A
N1515      H1547   1.039       .  S
N1516      C1523   1.349       .  A
N1516      C1524   1.350       .  A
N1517      C1522   1.351       .  A
N1517      C1521   1.352       .  A
N1517      H1548   1.038       .  S
N1518      C1525   1.352       .  A
N1518      C1526   1.350       .  A
C1519      C1527   1.388       .  A
C1519      C1535   1.411       .  A
C1520      C1536   1.412       .  A
C1520      C1528   1.387       .  A
C1521      C1529   1.386       .  A
C1521      C1538   1.414       .  A
C1522      C1537   1.417       .  A
C1522      C1530   1.389       .  A
C1523      C1535   1.409       .  A
C1523      C1531   1.387       .  A
C1524      C1538   1.409       .  A
C1524      C1532   1.386       .  A
C1525      C1533   1.384       .  A
C1525      C1536   1.410       .  A
C1526      C1534   1.387       .  A
C1526      C1537   1.414       .  A
C1527      C1528   1.378       .  A
C1527      H1539   1.083       .  S
C1528      H1540   1.082       .  S
C1529      C1530   1.379       .  A
C1529      H1541   1.083       .  S
C1530      H1542   1.082       .  S
C1531      C1532   1.371       .  A
C1531      H1543   1.082       .  S
C1532      H1544   1.082       .  S
C1533      C1534   1.374       .  A
C1533      H1545   1.082       .  S
C1534      H1546   1.082       .  S
C1535      C1553   1.476       .  S
C1536      C1585   1.488       .  S
C1537      C1601   1.488       .  S
C1538      C1569   1.485       .  S
C1549      C1898   1.401   1_554  A
C1549      C1554   1.401       .  A
C1549      H1556   1.080       .  S
C1550      C1897   1.400       .  A
C1550      C1551   1.414       .  A
C1551      C1552   1.399       .  A
C1551      C1558   1.508       .  S
C1552      C1553   1.401       .  A
C1552      H1557   1.085       .  S
C1553      C1902   1.412       .  A
C1554      C1901   1.411   1_554  A
C1554      C1555   1.508       .  S
C1555      H1559   1.109       .  S
C1555      H1908   1.110       .  S
C1555      H1561   1.110       .  S
C1558      H1562   1.107       .  S
C1558      H1911   1.110       .  S
C1558      H1564   1.110       .  S
H1560      C1903   1.110       .  S
H1563      C1906   1.110       .  S
C1565      C1914   1.401   1_554  A
C1565      C1570   1.403       .  A
C1565      H1572   1.084       .  S
C1566      C1913   1.399       .  A
C1566      C1567   1.413       .  A
C1567      C1568   1.406       .  A
C1567      C1574   1.508       .  S
C1568      C1569   1.405       .  A
C1568      H1573   1.084       .  S
C1569      C1918   1.411       .  A
C1570      C1917   1.412   1_554  A
C1570      C1571   1.506       .  S
C1571      H1575   1.111       .  S
C1571      H1924   1.110       .  S
C1571      H1577   1.111       .  S
C1574      H1578   1.111       .  S
C1574      H1927   1.110       .  S
C1574      H1580   1.111       .  S
H1576      C1919   1.109       .  S
H1579      C1922   1.110       .  S
C1581      C1930   1.405       .  A
C1581      C1586   1.406       .  A
C1581      H1588   1.084       .  S
C1582      C1929   1.405       .  A
C1582      C1583   1.413       .  A
C1583      C1584   1.403       .  A
C1583      C1590   1.504       .  S
C1584      C1585   1.401       .  A
C1584      H1589   1.084       .  S
C1585      C1934   1.416       .  A
C1586      C1933   1.413       .  A
C1586      C1587   1.506       .  S
C1587      H1591   1.109       .  S
C1587      H1940   1.110       .  S
C1587      H1593   1.109       .  S
C1590      H1594   1.110       .  S
C1590      H1943   1.108       .  S
C1590      H1596   1.109       .  S
H1592      C1935   1.108       .  S
H1595      C1938   1.109       .  S
C1597      C1598   1.402       .  A
C1597      C1602   1.397       .  A
C1597      H1604   1.083       .  S
C1598      C1947   1.414       .  A
C1599      C1946   1.414       .  A
C1599      C1600   1.405       .  A
C1599      C1606   1.508       .  S
C1600      C1949   1.405       .  A
C1600      H1605   1.084       .  S
C1601      C1948   1.405       .  A
C1601      C1602   1.416       .  A
C1602      C1603   1.509       .  S
C1603      H1607   1.110       .  S
C1603      H1608   1.106       .  S
C1603      H1609   1.111       .  S
C1606      H1610   1.110       .  S
C1606      H1611   1.108       .  S
C1606      H1612   1.111       .  S
C1613      C2310   1.401   1_545  A
C1613      C1618   1.402       .  A
C1613      H1620   1.084       .  S
C1614      C2309   1.403       .  A
C1614      C1615   1.415       .  A
C1615      C1616   1.402       .  A
C1615      C1622   1.508       .  S
C1616      C2313   1.403       .  A
C1616      H1621   1.084       .  S
C1617      C2312   1.403       .  A
C1617      C1618   1.412   1_565  A
C1618      C1619   1.506       .  S
C1619      H1623   1.109       .  S
C1619      H1624   1.111       .  S
C1619      H1625   1.109       .  S
C1622      H1626   1.109       .  S
C1622      H1627   1.108       .  S
C1622      H1628   1.111       .  S
C1629      C2326   1.402       .  A
C1629      C1634   1.400       .  A
C1629      H1636   1.084       .  S
C1630      C2325   1.402       .  A
C1630      C1631   1.412       .  A
C1631      C1632   1.401       .  A
C1631      C1638   1.509       .  S
C1632      C2329   1.401       .  A
C1632      H1637   1.084       .  S
C1633      C2328   1.401   1_545  A
C1633      C1634   1.412       .  A
C1634      C1635   1.508       .  S
C1635      H1639   1.110       .  S
C1635      H1640   1.109       .  S
C1635      H1641   1.110       .  S
C1638      H1642   1.111       .  S
C1638      H1643   1.109       .  S
C1638      H1644   1.111       .  S
C1645      C2342   1.403       .  A
C1645      C1650   1.404       .  A
C1645      H1652   1.084       .  S
C1646      C2341   1.407       .  A
C1646      C1647   1.416   1_545  A
C1647      C1648   1.400       .  A
C1647      C1654   1.509       .  S
C1648      C1649   1.400   1_565  A
C1648      H1653   1.077       .  S
C1649      C2346   1.417       .  A
C1650      C2345   1.418       .  A
C1650      C1651   1.509       .  S
C1651      H1655   1.109       .  S
C1651      H2352   1.109       .  S
C1651      H1657   1.111       .  S
C1654      H1658   1.110       .  S
C1654      H2355   1.107       .  S
C1654      H1660   1.111       .  S
H1656      C2347   1.111       .  S
H1659      C2350   1.110       .  S
C1661      C1662   1.404       .  A
C1661      C1666   1.405       .  A
C1661      H1668   1.083       .  S
C1662      C2359   1.417   1_545  A
C1663      C2358   1.416       .  A
C1663      C1664   1.405       .  A
C1663      C1670   1.504       .  S
C1664      C2361   1.402       .  A
C1664      H1669   1.084       .  S
C1665      C2360   1.400   1_545  A
C1665      C1666   1.412       .  A
C1666      C1667   1.506       .  S
C1667      H1671   1.109       .  S
C1667      H2368   1.108       .  S
C1667      H1673   1.111       .  S
C1670      H1674   1.110       .  S
C1670      H2371   1.109       .  S
C1670      H1676   1.111       .  S
H1672      C2363   1.111       .  S
H1675      C2366   1.110       .  S
C1677      C1682   1.402       .  A
C1677      H1684   1.085       .  S
C1678      C1679   1.415       .  A
C1679      C1680   1.406       .  A
C1679      C1686   1.507       .  S
C1680      C1681   1.405       .  A
C1680      H1685   1.084       .  S
C1682      C1683   1.505       .  S
C1683      H1687   1.110       .  S
C1683      H1688   1.109       .  S
C1683      H1689   1.108       .  S
C1686      H1690   1.110       .  S
C1686      H1691   1.108       .  S
C1686      H1692   1.111       .  S
C1693      C1694   1.403       .  A
C1693      C1698   1.403       .  A
C1693      H1700   1.084       .  S
C1695      C1696   1.400       .  A
C1695      C1702   1.507       .  S
C1696      H1701   1.084       .  S
C1697      C1698   1.416       .  A
C1698      C1699   1.508       .  S
C1699      H1703   1.109       .  S
C1699      H1704   1.109       .  S
C1699      H1705   1.111       .  S
C1702      H1706   1.111       .  S
C1702      H1707   1.108       .  S
C1702      H1708   1.110       .  S
C1709      C1710   1.405       .  A
C1709      C1714   1.405       .  A
C1709      H1716   1.085       .  S
C1711      C1712   1.402       .  A
C1711      C1718   1.507       .  S
C1712      H1717   1.084       .  S
C1713      C1714   1.413       .  A
C1714      C1715   1.507       .  S
C1715      H1719   1.111       .  S
C1715      H1720   1.109       .  S
C1715      H1721   1.110       .  S
C1718      H1722   1.110       .  S
C1718      H1723   1.109       .  S
C1718      H1724   1.111       .  S
C1725      C1730   1.402       .  A
C1725      H1732   1.084       .  S
C1726      C1727   1.415       .  A
C1727      C1728   1.402       .  A
C1727      C1734   1.507       .  S
C1728      C1729   1.402       .  A
C1728      H1733   1.084       .  S
C1730      C1731   1.509       .  S
C1731      H1735   1.109       .  S
C1731      H1736   1.110       .  S
C1731      H1737   1.111       .  S
C1734      H1738   1.108       .  S
C1734      H1739   1.110       .  S
C1734      H1740   1.111       .  S
N1741      C1746   1.352       .  A
N1741      C1745   1.352       .  A
N1741      H1773   1.041       .  S
N1742      C1749   1.347       .  A
N1742      C1750   1.347       .  A
N1743      C1748   1.350       .  A
N1743      C1747   1.352       .  A
N1743      H1774   1.041       .  S
N1744      C1751   1.350       .  A
N1744      C1752   1.351       .  A
C1745      C1753   1.386       .  A
C1745      C1761   1.411       .  A
C1746      C1762   1.412       .  A
C1746      C1754   1.386       .  A
C1747      C1755   1.386       .  A
C1747      C1764   1.411       .  A
C1748      C1763   1.411       .  A
C1748      C1756   1.386       .  A
C1749      C1761   1.408       .  A
C1749      C1757   1.386       .  A
C1750      C1764   1.408       .  A
C1750      C1758   1.387       .  A
C1751      C1759   1.385       .  A
C1751      C1762   1.412       .  A
C1752      C1760   1.387       .  A
C1752      C1763   1.414       .  A
C1753      C1754   1.377       .  A
C1753      H1765   1.082       .  S
C1754      H1766   1.082       .  S
C1755      C1756   1.379       .  A
C1755      H1767   1.082       .  S
C1756      H1768   1.082       .  S
C1757      C1758   1.377       .  A
C1757      H1769   1.082       .  S
C1758      H1770   1.082       .  S
C1759      C1760   1.375       .  A
C1759      H1771   1.082       .  S
C1760      H1772   1.082       .  S
O1775      C1786   1.292       .  A
O1776      C1787   1.289       .  A
O1777      C1788   1.291       .  A
O1777     Zr2479   2.440   1_655  S
O1778      C1789   1.292       .  A
O1779      C2485   1.292       .  A
O1780      C2484   1.290       .  A
O1781      C1787   1.295       .  A
O1781     Zr1783   2.452       .  S
O1782      C1786   1.291       .  A
O1782     Zr2479   2.431       .  S
Zr1783     O2473   2.450       .  S
Zr1783     O2478   2.459       .  S
Zr1783     O2481   2.333       .  S
Zr1783     O1791   2.341       .  S
O1785     Zr2479   2.340   1_655  S
O1785     Zr2160   2.336   1_545  S
C1786      C2077   1.468   1_455  S
C1787      C2058   1.476       .  S
C1788      C2010   1.487       .  S
C1788      O2476   1.295       .  A
C1789      C1997   1.476       .  S
C1789      O2475   1.291   1_545  A
H1790      O1791   0.966       .  S
H1792      O1793   0.965       .  S
O1793     Zr2161   2.336   1_545  S
O1794      C1817   1.294   1_455  A
O1794     Zr1810   2.446       .  S
O1795      C1818   1.289       .  A
O1795     Zr1811   2.425   1_556  S
O1796      C1819   1.292       .  A
O1796     Zr1812   2.442       .  S
O1797      C1820   1.291   1_554  A
O1797     Zr1813   2.436       .  S
O1798      C1821   1.292       .  A
O1798     Zr2509   2.438   1_545  S
O1799      C1822   1.291   1_554  A
O1799     Zr2508   2.436   1_545  S
O1800      C1823   1.292       .  A
O1800     Zr1814   2.436   1_655  S
O1801      C1824   1.291       .  A
O1802      C1823   1.291       .  A
O1802     Zr1812   2.435       .  S
O1803      C1824   1.291       .  A
O1803     Zr1813   2.434   1_556  S
O1804      C1819   1.292       .  A
O1804     Zr1810   2.436   1_655  S
O1805      C1822   1.291       .  A
O1805     Zr1811   2.435   1_556  S
O1806      C1821   1.291       .  A
O1807      C1820   1.293       .  A
O1808      C1817   1.294   1_455  A
O1808     Zr1814   2.447       .  S
O1809      C1818   1.296       .  A
O1809     Zr2510   2.460   1_645  S
Zr1810     O1816   2.338   1_455  S
Zr1811     O1826   2.334   1_554  S
Zr1812     O2495   2.442   1_556  S
Zr1812     O2133   2.338   1_556  S
Zr1812     O1816   2.336       .  S
Zr1812     O2522   2.345       .  S
Zr1813     O2494   2.435       .  S
Zr1813     O2141   2.337       .  S
Zr1813     O2511   2.343   1_554  S
Zr1813     O1828   2.345   1_554  S
Zr1814     O2505   2.452   1_455  S
Zr1814     O1816   2.339   1_455  S
Zr1814     O2522   2.344   1_455  S
O1815     Zr2509   2.351   1_546  S
C1817      C2045   1.485       .  S
C1818      C2029   1.480       .  S
C1819      C1898   1.475       .  S
C1820      C1930   1.478       .  S
C1821      C1946   1.469       .  S
C1822      C1914   1.466       .  S
C1823      C1962   1.470       .  S
C1824      C1978   1.467       .  S
H1825      O1826   0.965       .  S
O1826     Zr2508   2.344   1_546  S
O1826     Zr2510   2.331   1_645  S
H1827      O1828   0.965       .  S
N1829      C1834   1.350   1_565  A
N1829      C1833   1.351   1_565  A
N1829      H1861   1.042       .  S
N1830      C1837   1.349       .  A
N1830      C1838   1.348       .  A
N1831      C1836   1.354       .  A
N1831      C1835   1.355       .  A
N1831      H1862   1.040   1_545  S
N1832      C1839   1.349   1_545  A
N1832      C1840   1.348   1_545  A
C1833      C1841   1.387       .  A
C1833      C1849   1.410   1_545  A
C1834      C1850   1.406       .  A
C1834      C1842   1.385       .  A
C1835      C1843   1.387       .  A
C1835      C1852   1.419       .  A
C1836      C1851   1.418       .  A
C1836      C1844   1.386       .  A
C1837      C1849   1.410       .  A
C1837      C1845   1.386       .  A
C1838      C1852   1.411   1_565  A
C1838      C1846   1.387       .  A
C1839      C1847   1.385       .  A
C1839      C1850   1.407   1_565  A
C1840      C1848   1.388       .  A
C1840      C1851   1.411   1_565  A
C1841      C1842   1.375       .  A
C1841      H1853   1.082       .  S
C1842      H1854   1.082       .  S
C1843      C1844   1.380       .  A
C1843      H1855   1.082       .  S
C1844      H1856   1.082       .  S
C1845      C1846   1.376       .  A
C1845      H1857   1.082       .  S
C1846      H1858   1.082       .  S
C1847      C1848   1.374       .  A
C1847      H1859   1.082       .  S
C1848      H1860   1.082       .  S
C1849      C1965   1.486       .  S
C1850      C1981   1.481       .  S
C1851      C1994   1.489       .  S
C1852      C2013   1.491       .  S
N1863      C1868   1.353       .  A
N1863      C1867   1.351       .  A
N1863      H1895   1.039   1_556  S
N1864      C1871   1.349       .  A
N1864      C1872   1.350       .  A
N1865      C1870   1.351       .  A
N1865      C1869   1.351       .  A
N1865      H1896   1.041   1_556  S
N1866      C1873   1.349       .  A
N1866      C1874   1.348   1_556  A
C1867      C1875   1.387       .  A
C1867      C1883   1.414       .  A
C1868      C1884   1.415       .  A
C1868      C1876   1.387       .  A
C1869      C1877   1.387       .  A
C1869      C1886   1.410       .  A
C1870      C1885   1.411       .  A
C1870      C1878   1.387       .  A
C1871      C1883   1.412       .  A
C1871      C1879   1.387   1_556  A
C1872      C1886   1.407       .  A
C1872      C1880   1.385   1_556  A
C1873      C1881   1.386   1_556  A
C1873      C1884   1.410       .  A
C1874      C1882   1.386       .  A
C1874      C1885   1.409   1_554  A
C1875      C1876   1.379       .  A
C1875      H1887   1.082       .  S
C1876      H1888   1.083       .  S
C1877      C1878   1.378       .  A
C1877      H1889   1.082       .  S
C1878      H1890   1.082       .  S
C1879      C1880   1.373       .  A
C1879      H1891   1.082       .  S
C1880      H1892   1.082       .  S
C1881      C1882   1.373       .  A
C1881      H1893   1.082       .  S
C1882      H1894   1.082       .  S
C1883      C1901   1.486       .  S
C1884      C1933   1.488       .  S
C1885      C1949   1.482   1_556  S
C1886      C1917   1.482       .  S
C1897      C1902   1.398       .  A
C1897      H1904   1.079       .  S
C1898      C1899   1.417       .  A
C1899      C1900   1.403       .  A
C1899      C1906   1.508       .  S
C1900      C1901   1.403       .  A
C1900      H1905   1.084       .  S
C1902      C1903   1.508       .  S
C1903      H1907   1.110       .  S
C1903      H1909   1.108       .  S
C1906      H1910   1.110       .  S
C1906      H1912   1.105       .  S
C1913      C1918   1.399       .  A
C1913      H1920   1.085       .  S
C1914      C1915   1.411       .  A
C1915      C1916   1.402       .  A
C1915      C1922   1.508       .  S
C1916      C1917   1.401       .  A
C1916      H1921   1.084       .  S
C1918      C1919   1.506       .  S
C1919      H1923   1.111       .  S
C1919      H1925   1.110       .  S
C1922      H1926   1.111       .  S
C1922      H1928   1.111       .  S
C1929      C1934   1.407       .  A
C1929      H1936   1.084       .  S
C1930      C1931   1.413   1_556  A
C1931      C1932   1.401       .  A
C1931      C1938   1.505       .  S
C1932      C1933   1.400   1_554  A
C1932      H1937   1.084       .  S
C1934      C1935   1.508       .  S
C1935      H1939   1.110       .  S
C1935      H1941   1.111       .  S
C1938      H1942   1.111       .  S
C1938      H1944   1.109       .  S
C1945      C1946   1.397   1_556  A
C1945      C1950   1.394       .  A
C1945      H1952   1.078       .  S
C1947      C1948   1.404       .  A
C1947      C1954   1.508       .  S
C1948      H1953   1.084       .  S
C1949      C1950   1.413   1_554  A
C1950      C1951   1.509       .  S
C1951      H1955   1.110       .  S
C1951      H1956   1.107       .  S
C1951      H1957   1.111       .  S
C1954      H1958   1.109       .  S
C1954      H1959   1.111       .  S
C1954      H1960   1.111       .  S
C1961      C2658   1.403   1_545  A
C1961      C1966   1.401       .  A
C1961      H1968   1.084       .  S
C1962      C2657   1.402       .  A
C1962      C1963   1.416       .  A
C1963      C1964   1.402       .  A
C1963      C1970   1.509       .  S
C1964      C2661   1.402       .  A
C1964      H1969   1.084       .  S
C1965      C2660   1.403       .  A
C1965      C1966   1.414   1_565  A
C1966      C1967   1.509       .  S
C1967      H1971   1.110       .  S
C1967      H1972   1.108       .  S
C1967      H1973   1.110       .  S
C1970      H1974   1.110       .  S
C1970      H1975   1.107       .  S
C1970      H1976   1.110       .  S
C1977      C2674   1.402       .  A
C1977      C1982   1.402       .  A
C1977      H1984   1.084       .  S
C1978      C2673   1.402       .  A
C1978      C1979   1.411       .  A
C1979      C1980   1.401       .  A
C1979      C1986   1.508       .  S
C1980      C2677   1.402       .  A
C1980      H1985   1.084       .  S
C1981      C2676   1.402   1_545  A
C1981      C1982   1.410       .  A
C1982      C1983   1.506       .  S
C1983      H1987   1.111       .  S
C1983      H1988   1.109       .  S
C1983      H1989   1.111       .  S
C1986      H1990   1.111       .  S
C1986      H1991   1.110       .  S
C1986      H1992   1.111       .  S
C1993      C2690   1.402       .  A
C1993      C1998   1.403       .  A
C1993      H2000   1.084       .  S
C1994      C2689   1.407       .  A
C1994      C1995   1.413   1_545  A
C1995      C1996   1.397       .  A
C1995      C2002   1.508       .  S
C1996      C1997   1.399   1_565  A
C1996      H2001   1.079       .  S
C1997      C2694   1.414       .  A
C1998      C2693   1.416       .  A
C1998      C1999   1.510       .  S
C1999      H2003   1.110       .  S
C1999      H2700   1.107       .  S
C1999      H2005   1.111       .  S
C2002      H2006   1.111       .  S
C2002      H2703   1.107       .  S
C2002      H2008   1.110       .  S
H2004      C2695   1.108       .  S
H2007      C2698   1.110       .  S
C2009      C2010   1.406       .  A
C2009      C2014   1.410       .  A
C2009      H2016   1.084       .  S
C2010      C2707   1.412   1_545  A
C2011      C2706   1.417       .  A
C2011      C2012   1.404       .  A
C2011      C2018   1.504       .  S
C2012      C2709   1.403       .  A
C2012      H2017   1.084       .  S
C2013      C2708   1.398   1_545  A
C2013      C2014   1.418       .  A
C2014      C2015   1.508       .  S
C2015      H2019   1.110       .  S
C2015      H2716   1.110       .  S
C2015      H2021   1.108       .  S
C2018      H2022   1.111       .  S
C2018      H2719   1.107       .  S
C2018      H2024   1.110       .  S
H2020      C2711   1.107       .  S
H2023      C2714   1.109       .  S
C2025      C2030   1.401       .  A
C2025      H2032   1.084       .  S
C2026      C2027   1.415       .  A
C2027      C2028   1.404       .  A
C2027      C2034   1.506       .  S
C2028      C2029   1.403       .  A
C2028      H2033   1.084       .  S
C2030      C2031   1.502       .  S
C2031      H2035   1.110       .  S
C2031      H2036   1.110       .  S
C2031      H2037   1.111       .  S
C2034      H2038   1.110       .  S
C2034      H2039   1.108       .  S
C2034      H2040   1.111       .  S
C2041      C2042   1.403       .  A
C2041      C2046   1.405       .  A
C2041      H2048   1.084       .  S
C2043      C2044   1.408       .  A
C2043      C2050   1.508       .  S
C2044      H2049   1.084       .  S
C2045      C2046   1.417       .  A
C2046      C2047   1.508       .  S
C2047      H2051   1.111       .  S
C2047      H2052   1.109       .  S
C2047      H2053   1.108       .  S
C2050      H2054   1.111       .  S
C2050      H2055   1.108       .  S
C2050      H2056   1.109       .  S
C2057      C2058   1.403       .  A
C2057      C2062   1.404       .  A
C2057      H2064   1.084       .  S
C2059      C2060   1.403       .  A
C2059      C2066   1.506       .  S
C2060      H2065   1.084       .  S
C2061      C2062   1.413       .  A
C2062      C2063   1.507       .  S
C2063      H2067   1.111       .  S
C2063      H2068   1.109       .  S
C2063      H2069   1.111       .  S
C2066      H2070   1.109       .  S
C2066      H2071   1.109       .  S
C2066      H2072   1.111       .  S
C2073      C2078   1.402       .  A
C2073      H2080   1.084       .  S
C2074      C2075   1.410       .  A
C2075      C2076   1.399       .  A
C2075      C2082   1.505       .  S
C2076      C2077   1.401       .  A
C2076      H2081   1.084       .  S
C2078      C2079   1.508       .  S
C2079      H2083   1.110       .  S
C2079      H2084   1.108       .  S
C2079      H2085   1.111       .  S
C2082      H2086   1.110       .  S
C2082      H2087   1.109       .  S
C2082      H2088   1.110       .  S
N2089      C2094   1.353       .  A
N2089      C2093   1.353       .  A
N2089      H2121   1.039       .  S
N2090      C2097   1.349       .  A
N2090      C2098   1.348       .  A
N2091      C2096   1.351       .  A
N2091      C2095   1.351       .  A
N2091      H2122   1.041       .  S
N2092      C2099   1.350       .  A
N2092      C2100   1.352       .  A
C2093      C2101   1.386       .  A
C2093      C2109   1.415       .  A
C2094      C2110   1.415       .  A
C2094      C2102   1.387       .  A
C2095      C2103   1.386       .  A
C2095      C2112   1.410       .  A
C2096      C2111   1.413       .  A
C2096      C2104   1.388       .  A
C2097      C2109   1.411       .  A
C2097      C2105   1.386       .  A
C2098      C2112   1.409       .  A
C2098      C2106   1.387       .  A
C2099      C2107   1.386       .  A
C2099      C2110   1.414       .  A
C2100      C2108   1.386       .  A
C2100      C2111   1.414       .  A
C2101      C2102   1.376       .  A
C2101      H2113   1.082       .  S
C2102      H2114   1.082       .  S
C2103      C2104   1.378       .  A
C2103      H2115   1.082       .  S
C2104      H2116   1.082       .  S
C2105      C2106   1.374       .  A
C2105      H2117   1.082       .  S
C2106      H2118   1.082       .  S
C2107      C2108   1.377       .  A
C2107      H2119   1.082       .  S
C2108      H2120   1.082       .  S
O2123      C2134   1.291       .  A
O2123     Zr2507   2.436   1_654  S
O2124      C2135   1.294       .  A
O2124     Zr2506   2.450   1_455  S
O2125      C2136   1.293       .  A
O2126      C2137   1.289       .  A
O2127     Zr2509   2.449   1_545  S
O2128     Zr2508   2.438       .  S
O2129      C2135   1.292   1_655  A
O2129     Zr2131   2.439   1_565  S
O2130      C2134   1.293       .  A
Zr2131     O2139   2.350   1_545  S
O2132     Zr2509   2.339       .  S
O2133     Zr2507   2.341   1_654  S
C2134      C2425   1.479       .  S
C2135      C2406   1.478       .  S
C2136      C2358   1.483       .  S
C2137      C2345   1.479       .  S
H2138      O2139   0.967       .  S
O2139     Zr2506   2.352       .  S
O2139     Zr2508   2.340       .  S
H2140      O2141   0.965       .  S
O2142      C2165   1.293       .  A
O2142     Zr2158   2.447       .  S
O2143      C2166   1.292       .  A
O2143     Zr2159   2.442       .  S
O2144      C2167   1.293       .  A
O2144     Zr2160   2.442       .  S
O2145      C2168   1.292       .  A
O2145     Zr2161   2.444       .  S
O2146      C2169   1.289       .  A
O2147      C2170   1.294       .  A
O2148      C2171   1.293       .  A
O2148     Zr2162   2.444   1_655  S
O2149      C2172   1.291   1_545  A
O2150      C2171   1.291       .  A
O2150     Zr2160   2.433       .  S
O2151      C2172   1.289       .  A
O2151     Zr2161   2.422       .  S
O2152      C2167   1.291       .  A
O2152     Zr2158   2.435   1_655  S
O2153      C2170   1.290       .  A
O2153     Zr2159   2.432   1_655  S
O2154      C2169   1.294       .  A
O2155      C2168   1.294       .  A
O2156      C2165   1.293       .  A
O2156     Zr2162   2.442       .  S
O2157      C2166   1.292       .  A
Zr2158     O2472   2.438       .  S
Zr2158     O2487   2.351   1_455  S
Zr2158     O2164   2.333   1_455  S
Zr2159     O2471   2.442       .  S
Zr2159     O2481   2.343   1_455  S
Zr2159     O2174   2.343   1_455  S
Zr2160     O2476   2.456   1_565  S
Zr2160     O2487   2.335       .  S
Zr2160     O2164   2.341       .  S
Zr2161     O2475   2.432       .  S
Zr2161     O2480   2.336       .  S
Zr2161     O2176   2.345       .  S
Zr2162     O2164   2.341   1_455  S
C2165      C2393   1.482       .  S
C2166      C2377   1.475   1_455  S
C2167      C2246   1.480       .  S
C2168      C2278   1.485       .  S
C2169      C2294   1.470       .  S
C2170      C2262   1.474       .  S
C2171      C2310   1.472       .  S
C2172      C2326   1.463   1_565  S
H2173      O2174   0.966       .  S
H2175      O2176   0.966       .  S
N2177      C2182   1.351       .  A
N2177      C2181   1.350       .  A
N2177      H2209   1.041       .  S
N2178      C2185   1.348       .  A
N2178      C2186   1.348       .  A
N2179      C2184   1.350       .  A
N2179      C2183   1.352       .  A
N2179      H2210   1.041       .  S
N2180      C2187   1.348       .  A
N2180      C2188   1.349       .  A
C2181      C2189   1.387       .  A
C2181      C2197   1.412       .  A
C2182      C2198   1.409       .  A
C2182      C2190   1.386       .  A
C2183      C2191   1.387       .  A
C2183      C2200   1.413       .  A
C2184      C2199   1.412       .  A
C2184      C2192   1.387       .  A
C2185      C2197   1.410       .  A
C2185      C2193   1.386       .  A
C2186      C2200   1.410       .  A
C2186      C2194   1.386       .  A
C2187      C2195   1.386       .  A
C2187      C2198   1.407       .  A
C2188      C2196   1.387       .  A
C2188      C2199   1.411       .  A
C2189      C2190   1.379       .  A
C2189      H2201   1.082       .  S
C2190      H2202   1.082       .  S
C2191      C2192   1.380       .  A
C2191      H2203   1.082       .  S
C2192      H2204   1.083       .  S
C2193      C2194   1.376       .  A
C2193      H2205   1.082       .  S
C2194      H2206   1.082       .  S
C2195      C2196   1.376       .  A
C2195      H2207   1.083       .  S
C2196      H2208   1.082       .  S
C2197      C2313   1.486       .  S
C2198      C2329   1.481       .  S
C2199      C2342   1.487       .  S
C2200      C2361   1.489       .  S
N2211      C2216   1.355       .  A
N2211      C2215   1.352       .  A
N2211      H2243   1.041       .  S
N2212      C2219   1.350       .  A
N2212      C2220   1.352       .  A
N2213      C2218   1.352       .  A
N2213      C2217   1.354       .  A
N2213      H2244   1.037       .  S
N2214      C2221   1.351       .  A
N2214      C2222   1.349       .  A
C2215      C2223   1.388       .  A
C2215      C2231   1.416       .  A
C2216      C2232   1.415       .  A
C2216      C2224   1.385       .  A
C2217      C2225   1.387       .  A
C2217      C2234   1.416       .  A
C2218      C2233   1.414       .  A
C2218      C2226   1.387       .  A
C2219      C2231   1.417       .  A
C2219      C2227   1.389       .  A
C2220      C2234   1.413       .  A
C2220      C2228   1.385       .  A
C2221      C2229   1.386       .  A
C2221      C2232   1.410       .  A
C2222      C2230   1.386       .  A
C2222      C2233   1.410       .  A
C2223      C2224   1.378       .  A
C2223      H2235   1.082       .  S
C2224      H2236   1.082       .  S
C2225      C2226   1.375       .  A
C2225      H2237   1.082       .  S
C2226      H2238   1.082       .  S
C2227      C2228   1.374       .  A
C2227      H2239   1.082       .  S
C2228      H2240   1.082       .  S
C2229      C2230   1.373       .  A
C2229      H2241   1.082       .  S
C2230      H2242   1.082       .  S
C2231      C2249   1.491       .  S
C2232      C2281   1.495       .  S
C2233      C2297   1.481       .  S
C2234      C2265   1.491       .  S
C2245      C2594   1.398   1_554  A
C2245      C2250   1.399       .  A
C2245      H2252   1.076       .  S
C2246      C2593   1.401       .  A
C2246      C2247   1.414       .  A
C2247      C2248   1.403       .  A
C2247      C2254   1.508       .  S
C2248      C2249   1.404       .  A
C2248      H2253   1.084       .  S
C2249      C2598   1.414       .  A
C2250      C2597   1.415   1_554  A
C2250      C2251   1.509       .  S
C2251      H2255   1.111       .  S
C2251      H2604   1.111       .  S
C2251      H2257   1.106       .  S
C2254      H2258   1.111       .  S
C2254      H2607   1.109       .  S
C2254      H2260   1.109       .  S
H2256      C2599   1.110       .  S
H2259      C2602   1.109       .  S
C2261      C2610   1.404       .  A
C2261      C2266   1.406       .  A
C2261      H2268   1.084       .  S
C2262      C2609   1.403       .  A
C2262      C2263   1.413       .  A
C2263      C2264   1.405       .  A
C2263      C2270   1.508       .  S
C2264      C2265   1.403       .  A
C2264      H2269   1.084       .  S
C2265      C2614   1.413       .  A
C2266      C2613   1.415       .  A
C2266      C2267   1.508       .  S
C2267      H2271   1.110       .  S
C2267      H2620   1.111       .  S
C2267      H2273   1.109       .  S
C2270      H2274   1.111       .  S
C2270      H2623   1.110       .  S
C2270      H2276   1.111       .  S
H2272      C2615   1.109       .  S
H2275      C2618   1.111       .  S
C2277      C2626   1.405   1_556  A
C2277      C2282   1.405       .  A
C2277      H2284   1.084       .  S
C2278      C2625   1.405       .  A
C2278      C2279   1.416       .  A
C2279      C2280   1.404       .  A
C2279      C2286   1.503       .  S
C2280      C2281   1.401       .  A
C2280      H2285   1.084       .  S
C2281      C2630   1.416       .  A
C2282      C2629   1.412   1_556  A
C2282      C2283   1.507       .  S
C2283      H2287   1.108       .  S
C2283      H2636   1.110       .  S
C2283      H2289   1.110       .  S
C2286      H2290   1.111       .  S
C2286      H2639   1.110       .  S
C2286      H2292   1.109       .  S
H2288      C2631   1.110       .  S
H2291      C2634   1.110       .  S
C2293      C2294   1.401       .  A
C2293      C2298   1.402       .  A
C2293      H2300   1.080       .  S
C2294      C2643   1.412       .  A
C2295      C2642   1.413       .  A
C2295      C2296   1.403       .  A
C2295      C2302   1.507       .  S
C2296      C2645   1.403       .  A
C2296      H2301   1.084       .  S
C2297      C2644   1.400       .  A
C2297      C2298   1.411       .  A
C2298      C2299   1.507       .  S
C2299      H2303   1.111       .  S
C2299      H2304   1.110       .  S
C2299      H2305   1.110       .  S
C2302      H2306   1.110       .  S
C2302      H2307   1.108       .  S
C2302      H2308   1.111       .  S
C2309      C2314   1.401       .  A
C2309      H2316   1.084       .  S
C2310      C2311   1.416       .  A
C2311      C2312   1.404       .  A
C2311      C2318   1.509       .  S
C2312      H2317   1.084       .  S
C2313      C2314   1.416       .  A
C2314      C2315   1.509       .  S
C2315      H2319   1.110       .  S
C2315      H2320   1.107       .  S
C2315      H2321   1.110       .  S
C2318      H2322   1.111       .  S
C2318      H2323   1.107       .  S
C2318      H2324   1.110       .  S
C2325      C2330   1.402       .  A
C2325      H2332   1.085       .  S
C2326      C2327   1.411   1_545  A
C2327      C2328   1.399       .  A
C2327      C2334   1.508       .  S
C2328      H2333   1.084       .  S
C2329      C2330   1.412       .  A
C2330      C2331   1.506       .  S
C2331      H2335   1.111       .  S
C2331      H2336   1.110       .  S
C2331      H2337   1.110       .  S
C2334      H2338   1.111       .  S
C2334      H2339   1.110       .  S
C2334      H2340   1.111       .  S
C2341      C2346   1.409       .  A
C2341      H2348   1.084       .  S
C2342      C2343   1.413       .  A
C2343      C2344   1.401       .  A
C2343      C2350   1.509       .  S
C2344      C2345   1.402       .  A
C2344      H2349   1.081       .  S
C2346      C2347   1.508       .  S
C2347      H2351   1.109       .  S
C2347      H2353   1.111       .  S
C2350      H2354   1.108       .  S
C2350      H2356   1.110       .  S
C2357      C2358   1.403       .  A
C2357      C2362   1.402       .  A
C2357      H2364   1.084       .  S
C2359      C2360   1.403       .  A
C2359      C2366   1.501       .  S
C2360      H2365   1.084       .  S
C2361      C2362   1.415       .  A
C2362      C2363   1.507       .  S
C2363      H2367   1.109       .  S
C2363      H2369   1.107       .  S
C2366      H2370   1.110       .  S
C2366      H2372   1.111       .  S
C2373      C2378   1.399       .  A
C2373      H2380   1.084       .  S
C2374      C2375   1.415       .  A
C2375      C2376   1.404       .  A
C2375      C2382   1.507       .  S
C2376      C2377   1.404       .  A
C2376      H2381   1.084       .  S
C2378      C2379   1.504       .  S
C2379      H2383   1.111       .  S
C2379      H2384   1.109       .  S
C2379      H2385   1.111       .  S
C2382      H2386   1.111       .  S
C2382      H2387   1.110       .  S
C2382      H2388   1.108       .  S
C2389      C2390   1.403   1_655  A
C2389      C2394   1.404       .  A
C2389      H2396   1.084       .  S
C2391      C2392   1.405       .  A
C2391      C2398   1.508       .  S
C2392      H2397   1.084       .  S
C2393      C2394   1.415   1_455  A
C2394      C2395   1.508       .  S
C2395      H2399   1.111       .  S
C2395      H2400   1.109       .  S
C2395      H2401   1.109       .  S
C2398      H2402   1.110       .  S
C2398      H2403   1.107       .  S
C2398      H2404   1.110       .  S
C2405      C2406   1.403   1_655  A
C2405      C2410   1.406       .  A
C2405      H2412   1.084       .  S
C2407      C2408   1.404       .  A
C2407      C2414   1.509       .  S
C2408      H2413   1.084       .  S
C2409      C2410   1.415   1_455  A
C2410      C2411   1.508       .  S
C2411      H2415   1.110       .  S
C2411      H2416   1.111       .  S
C2411      H2417   1.109       .  S
C2414      H2418   1.110       .  S
C2414      H2419   1.110       .  S
C2414      H2420   1.111       .  S
C2421      C2426   1.401       .  A
C2421      H2428   1.085       .  S
C2422      C2423   1.417       .  A
C2423      C2424   1.406       .  A
C2423      C2430   1.508       .  S
C2424      C2425   1.403       .  A
C2424      H2429   1.084       .  S
C2426      C2427   1.509       .  S
C2427      H2431   1.111       .  S
C2427      H2432   1.105       .  S
C2427      H2433   1.111       .  S
C2430      H2434   1.110       .  S
C2430      H2435   1.107       .  S
C2430      H2436   1.109       .  S
N2437      C2442   1.353       .  A
N2437      C2441   1.354       .  A
N2437      H2469   1.041       .  S
N2438      C2445   1.351       .  A
N2438      C2446   1.349       .  A
N2439      C2444   1.351       .  A
N2439      C2443   1.351       .  A
N2439      H2470   1.040       .  S
N2440      C2447   1.350       .  A
N2440      C2448   1.351       .  A
C2441      C2449   1.386       .  A
C2441      C2457   1.417       .  A
C2442      C2458   1.415       .  A
C2442      C2450   1.387       .  A
C2443      C2451   1.387       .  A
C2443      C2460   1.412       .  A
C2444      C2459   1.412       .  A
C2444      C2452   1.387       .  A
C2445      C2457   1.413       .  A
C2445      C2453   1.386       .  A
C2446      C2460   1.410       .  A
C2446      C2454   1.386       .  A
C2447      C2455   1.387       .  A
C2447      C2458   1.411       .  A
C2448      C2456   1.386       .  A
C2448      C2459   1.413       .  A
C2449      C2450   1.381       .  A
C2449      H2461   1.082       .  S
C2450      H2462   1.082       .  S
C2451      C2452   1.377       .  A
C2451      H2463   1.082       .  S
C2452      H2464   1.082       .  S
C2453      C2454   1.375       .  A
C2453      H2465   1.082       .  S
C2454      H2466   1.082       .  S
C2455      C2456   1.375       .  A
C2455      H2467   1.082       .  S
C2456      H2468   1.082       .  S
O2471      C2482   1.292   1_455  A
O2472      C2483   1.292   1_455  A
O2473      C2484   1.294       .  A
O2474      C2485   1.292       .  A
O2477      C2483   1.293       .  A
O2477     Zr2479   2.444   1_665  S
O2478      C2482   1.296       .  A
Zr2479     O2487   2.343   1_445  S
C2482      C2773   1.488       .  S
C2483      C2754   1.472   1_655  S
C2484      C2706   1.482       .  S
C2485      C2693   1.472       .  S
H2486      O2487   0.966       .  S
H2488      O2489   0.966       .  S
O2490      C2513   1.293       .  A
O2490     Zr2506   2.444   1_556  S
O2491      C2514   1.291   1_455  A
O2491     Zr2507   2.436       .  S
O2492      C2515   1.293   1_554  A
O2492     Zr2508   2.442       .  S
O2493      C2516   1.292       .  A
O2493     Zr2509   2.440       .  S
O2494      C2517   1.291       .  A
O2495      C2518   1.292       .  A
O2496      C2519   1.292       .  A
O2496     Zr2510   2.438   1_655  S
O2497      C2520   1.293       .  A
O2498      C2519   1.291       .  A
O2498     Zr2508   2.432   1_556  S
O2499      C2520   1.292       .  A
O2499     Zr2509   2.440   1_546  S
O2500      C2515   1.291   1_554  A
O2500     Zr2506   2.435       .  S
O2501      C2518   1.293   1_556  A
O2501     Zr2507   2.444   1_655  S
O2502      C2517   1.291       .  A
O2503      C2516   1.292       .  A
O2504      C2513   1.292       .  A
O2504     Zr2510   2.434   1_655  S
O2505      C2514   1.294       .  A
Zr2506     O2512   2.343   1_554  S
Zr2507     O2522   2.344   1_455  S
Zr2508     O2512   2.336   1_554  S
Zr2509     O2524   2.346   1_554  S
Zr2510     O2512   2.347   1_455  S
C2513      C2741   1.471       .  S
C2514      C2725   1.475       .  S
C2515      C2594   1.476       .  S
C2516      C2626   1.482       .  S
C2517      C2642   1.469       .  S
C2518      C2610   1.476       .  S
C2519      C2658   1.475       .  S
C2520      C2674   1.470       .  S
H2521      O2522   0.965       .  S
H2523      O2524   0.967       .  S
N2525      C2530   1.351       .  A
N2525      C2529   1.352       .  A
N2525      H2557   1.039       .  S
N2526      C2533   1.349       .  A
N2526      C2534   1.349       .  A
N2527      C2532   1.351       .  A
N2527      C2531   1.351       .  A
N2527      H2558   1.041       .  S
N2528      C2535   1.348       .  A
N2528      C2536   1.350       .  A
C2529      C2537   1.387       .  A
C2529      C2545   1.414       .  A
C2530      C2546   1.414       .  A
C2530      C2538   1.387       .  A
C2531      C2539   1.387       .  A
C2531      C2548   1.413       .  A
C2532      C2547   1.409       .  A
C2532      C2540   1.385       .  A
C2533      C2545   1.410       .  A
C2533      C2541   1.386       .  A
C2534      C2548   1.411       .  A
C2534      C2542   1.387       .  A
C2535      C2543   1.388       .  A
C2535      C2546   1.411       .  A
C2536      C2544   1.385       .  A
C2536      C2547   1.408       .  A
C2537      C2538   1.378       .  A
C2537      H2549   1.083       .  S
C2538      H2550   1.082       .  S
C2539      C2540   1.377       .  A
C2539      H2551   1.082       .  S
C2540      H2552   1.082       .  S
C2541      C2542   1.375       .  A
C2541      H2553   1.082       .  S
C2542      H2554   1.082       .  S
C2543      C2544   1.374       .  A
C2543      H2555   1.082       .  S
C2544      H2556   1.082       .  S
C2545      C2661   1.486       .  S
C2546      C2677   1.481       .  S
C2547      C2690   1.486       .  S
C2548      C2709   1.488       .  S
N2559      C2564   1.352   1_554  A
N2559      C2563   1.350   1_554  A
N2559      H2591   1.040       .  S
N2560      C2567   1.350       .  A
N2560      C2568   1.351       .  A
N2561      C2566   1.352       .  A
N2561      C2565   1.354       .  A
N2561      H2592   1.041       .  S
N2562      C2569   1.348       .  A
N2562      C2570   1.346       .  A
C2563      C2571   1.386       .  A
C2563      C2579   1.411       .  A
C2564      C2580   1.414   1_556  A
C2564      C2572   1.387       .  A
C2565      C2573   1.385   1_554  A
C2565      C2582   1.412       .  A
C2566      C2581   1.414       .  A
C2566      C2574   1.388   1_554  A
C2567      C2579   1.413   1_554  A
C2567      C2575   1.387       .  A
C2568      C2582   1.411       .  A
C2568      C2576   1.385       .  A
C2569      C2577   1.387       .  A
C2569      C2580   1.410       .  A
C2570      C2578   1.387       .  A
C2570      C2581   1.408       .  A
C2571      C2572   1.378       .  A
C2571      H2583   1.082       .  S
C2572      H2584   1.082       .  S
C2573      C2574   1.375       .  A
C2573      H2585   1.082       .  S
C2574      H2586   1.082       .  S
C2575      C2576   1.374       .  A
C2575      H2587   1.082       .  S
C2576      H2588   1.082       .  S
C2577      C2578   1.375       .  A
C2577      H2589   1.083       .  S
C2578      H2590   1.083       .  S
C2579      C2597   1.486       .  S
C2580      C2629   1.486       .  S
C2581      C2645   1.480       .  S
C2582      C2613   1.492       .  S
C2593      C2598   1.401       .  A
C2593      H2600   1.073       .  S
C2594      C2595   1.413       .  A
C2595      C2596   1.404       .  A
C2595      C2602   1.505       .  S
C2596      C2597   1.404       .  A
C2596      H2601   1.084       .  S
C2598      C2599   1.510       .  S
C2599      H2603   1.107       .  S
C2599      H2605   1.110       .  S
C2602      H2606   1.111       .  S
C2602      H2608   1.107       .  S
C2609      C2614   1.405       .  A
C2609      H2616   1.084       .  S
C2610      C2611   1.412   1_554  A
C2611      C2612   1.404       .  A
C2611      C2618   1.508       .  S
C2612      C2613   1.404   1_556  A
C2612      H2617   1.084       .  S
C2614      C2615   1.506       .  S
C2615      H2619   1.111       .  S
C2615      H2621   1.111       .  S
C2618      H2622   1.110       .  S
C2618      H2624   1.111       .  S
C2625      C2630   1.407       .  A
C2625      H2632   1.084       .  S
C2626      C2627   1.416       .  A
C2627      C2628   1.401       .  A
C2627      C2634   1.502       .  S
C2628      C2629   1.399       .  A
C2628      H2633   1.084       .  S
C2630      C2631   1.507       .  S
C2631      H2635   1.110       .  S
C2631      H2637   1.109       .  S
C2634      H2638   1.111       .  S
C2634      H2640   1.110       .  S
C2641      C2642   1.398   1_556  A
C2641      C2646   1.397       .  A
C2641      H2648   1.077       .  S
C2643      C2644   1.401       .  A
C2643      C2650   1.506       .  S
C2644      H2649   1.084       .  S
C2645      C2646   1.411   1_554  A
C2646      C2647   1.508       .  S
C2647      H2651   1.110       .  S
C2647      H2652   1.110       .  S
C2647      H2653   1.109       .  S
C2650      H2654   1.110       .  S
C2650      H2655   1.107       .  S
C2650      H2656   1.111       .  S
C2657      C2662   1.402       .  A
C2657      H2664   1.084       .  S
C2658      C2659   1.415       .  A
C2659      C2660   1.402       .  A
C2659      C2666   1.509       .  S
C2660      H2665   1.084       .  S
C2661      C2662   1.411       .  A
C2662      C2663   1.505       .  S
C2663      H2667   1.109       .  S
C2663      H2668   1.109       .  S
C2663      H2669   1.110       .  S
C2666      H2670   1.110       .  S
C2666      H2671   1.109       .  S
C2666      H2672   1.110       .  S
C2673      C2678   1.402       .  A
C2673      H2680   1.085       .  S
C2674      C2675   1.413   1_545  A
C2675      C2676   1.403       .  A
C2675      C2682   1.508       .  S
C2676      H2681   1.084       .  S
C2677      C2678   1.412       .  A
C2678      C2679   1.508       .  S
C2679      H2683   1.109       .  S
C2679      H2684   1.110       .  S
C2679      H2685   1.111       .  S
C2682      H2686   1.111       .  S
C2682      H2687   1.110       .  S
C2682      H2688   1.111       .  S
C2689      C2694   1.407       .  A
C2689      H2696   1.084       .  S
C2690      C2691   1.413       .  A
C2691      C2692   1.401       .  A
C2691      C2698   1.508       .  S
C2692      C2693   1.400       .  A
C2692      H2697   1.081       .  S
C2694      C2695   1.507       .  S
C2695      H2699   1.110       .  S
C2695      H2701   1.111       .  S
C2698      H2702   1.111       .  S
C2698      H2704   1.109       .  S
C2705      C2706   1.403       .  A
C2705      C2710   1.402       .  A
C2705      H2712   1.084       .  S
C2707      C2708   1.401       .  A
C2707      C2714   1.498       .  S
C2708      H2713   1.084       .  S
C2709      C2710   1.413       .  A
C2710      C2711   1.508       .  S
C2711      H2715   1.110       .  S
C2711      H2717   1.110       .  S
C2714      H2718   1.111       .  S
C2714      H2720   1.109       .  S
C2721      C2726   1.401       .  A
C2721      H2728   1.084       .  S
C2722      C2723   1.414       .  A
C2723      C2724   1.405       .  A
C2723      C2730   1.505       .  S
C2724      C2725   1.403       .  A
C2724      H2729   1.084       .  S
C2726      C2727   1.502       .  S
C2727      H2731   1.110       .  S
C2727      H2732   1.111       .  S
C2727      H2733   1.109       .  S
C2730      H2734   1.109       .  S
C2730      H2735   1.109       .  S
C2730      H2736   1.111       .  S
C2737      C2738   1.402   1_655  A
C2737      C2742   1.401       .  A
C2737      H2744   1.085       .  S
C2739      C2740   1.403       .  A
C2739      C2746   1.508       .  S
C2740      H2745   1.084       .  S
C2741      C2742   1.415       .  A
C2742      C2743   1.509       .  S
C2743      H2747   1.111       .  S
C2743      H2748   1.110       .  S
C2743      H2749   1.107       .  S
C2746      H2750   1.110       .  S
C2746      H2751   1.107       .  S
C2746      H2752   1.110       .  S
C2753      C2754   1.403   1_655  A
C2753      C2758   1.405       .  A
C2753      H2760   1.084       .  S
C2755      C2756   1.404       .  A
C2755      C2762   1.508       .  S
C2756      H2761   1.084       .  S
C2757      C2758   1.413   1_455  A
C2758      C2759   1.507       .  S
C2759      H2763   1.110       .  S
C2759      H2764   1.110       .  S
C2759      H2765   1.110       .  S
C2762      H2766   1.109       .  S
C2762      H2767   1.111       .  S
C2762      H2768   1.110       .  S
C2769      C2774   1.406       .  A
C2769      H2776   1.085       .  S
C2770      C2771   1.418       .  A
C2771      C2772   1.405       .  A
C2771      C2778   1.507       .  S
C2772      C2773   1.403       .  A
C2772      H2777   1.084       .  S
C2774      C2775   1.508       .  S
C2775      H2779   1.111       .  S
C2775      H2780   1.110       .  S
C2775      H2781   1.104       .  S
C2778      H2782   1.107       .  S
C2778      H2783   1.110       .  S
C2778      H2784   1.111       .  S
