geometry optimzed in LAMMPS
_audit_creation_date              2020-11-30 
_audit_creation_method            'lammps2cif' 
_symmetry_space_group_name_H-M    'P1' 
_symmetry_Int_Tables_number       1 
_symmetry_cell_setting            triclinic 
loop_ 
_symmetry_equiv_pos_as_xyz 
  x,y,z 
_cell_length_a                    39.67537896 
_cell_length_b                    39.36886000697403 
_cell_length_c                    34.44459418678868 
_cell_angle_alpha                 90.23715713472342 
_cell_angle_beta                  89.89845637388207 
_cell_angle_gamma                 90.45225848763181 
loop_ 
_atom_site_label 
_atom_site_type_symbol 
_atom_site_fract_x 
_atom_site_fract_y 
_atom_site_fract_z 
_atom_site_charge 
O1          O  0.34695534  0.69614362  0.38888669    -0.57400
C2          C  0.27925062  0.63848965  0.36288903     0.75200
O3          O  0.37183030  0.60216426  0.30418558    -0.58500
C4          C  0.36923219  0.71183032  0.36958854     0.75200
C5          C  0.37971050  0.61104329  0.42569882     0.77600
Cd6        Cd  0.35162289  0.64178068  0.35705613     1.37500
O7          O  0.29681759  0.61185904  0.36044146    -0.57400
O8          O  0.35129849  0.60259136  0.41203724    -0.56200
C9          C  0.35823858  0.61898801  0.27711290     0.77600
O10         O  0.39769170  0.63027689  0.40455491    -0.58600
O11         O  0.29533988  0.66631093  0.36369644    -0.57000
O12         O  0.38494956  0.69459700  0.34423274    -0.57000
O13         O  0.34544821  0.64694514  0.28702847    -0.56200
O14         O  0.29007865  0.64942947  0.64146057    -0.57400
C15         C  0.35437855  0.70819691  0.65085504     0.75200
O16         O  0.38776616  0.61610359  0.71145655    -0.58500
C17         C  0.27616698  0.62101124  0.64780641     0.75200
C18         C  0.38013599  0.61050047  0.58864969     0.77600
Cd19       Cd  0.34784919  0.63561520  0.65855736     1.37500
O20         O  0.32760974  0.69211210  0.64269743    -0.57400
O21         O  0.36165444  0.59114593  0.60908685    -0.56200
C22         C  0.36970824  0.62759975  0.73883846     0.77600
O23         O  0.38671833  0.63929760  0.60307539    -0.58600
O24         O  0.37887241  0.69052239  0.66247059    -0.57000
O25         O  0.29549978  0.59773228  0.65983472    -0.57000
O26         O  0.34125501  0.63867546  0.72893235    -0.56200
C27         C  0.44241387  0.69874410  0.94011019     0.86900
C28         C  0.41891184  0.67968415  0.96847517    -0.53300
C29         C  0.41484497  0.64601231  0.96029996     0.09800
C30         C  0.43446387  0.63398959  0.92437660     0.20800
C31         C  0.47544642  0.67828224  0.94074726    -0.54000
C32         C  0.47128151  0.64427520  0.93293373     0.09900
C33         C  0.42679032  0.69121108  0.90005083    -0.53600
C34         C  0.42304137  0.65749562  0.89151269     0.10500
H35         H  0.40557277  0.69107495  0.99256231     0.15000
H36         H  0.43087754  0.60658488  0.91765415     0.00800
H37         H  0.49961901  0.68954683  0.94834944     0.15300
H38         H  0.41930125  0.71098708  0.87999890     0.15100
C39         C  0.28161311  0.53470066  0.08583273     0.86900
C40         C  0.29919692  0.55555069  0.05373851    -0.53300
C41         C  0.33275553  0.56134695  0.05994828     0.09800
C42         C  0.34620542  0.54437866  0.09688710     0.20800
C43         C  0.30236306  0.50148637  0.08706314    -0.54000
C44         C  0.33633200  0.50677363  0.09239628     0.09900
C45         C  0.29040904  0.55325173  0.12383455    -0.53600
C46         C  0.32404976  0.55808311  0.12983736     0.10500
H47         H  0.28602202  0.56558510  0.02873976     0.15000
H48         H  0.37358024  0.54833484  0.10191850     0.00800
H49         H  0.29187895  0.47637445  0.08185283     0.15300
H50         H  0.27146885  0.56172577  0.14446128     0.15100
C51         C  0.46742054  0.34787930  0.08982516     0.86900
C52         C  0.48132444  0.35901534  0.12960606    -0.53300
C53         C  0.48633463  0.39307986  0.13368053     0.09800
C54         C  0.47711755  0.41357230  0.09756745     0.20800
C55         C  0.43498485  0.36939965  0.08526618    -0.54000
C56         C  0.44025656  0.40376234  0.08930881     0.09900
C57         C  0.49197135  0.36347733  0.05981144    -0.53600
C58         C  0.49709820  0.39771015  0.06388670     0.10500
H59         H  0.48612324  0.34134206  0.15307363     0.15000
H60         H  0.48127215  0.44132215  0.10136102     0.00800
H61         H  0.41008325  0.35959030  0.07916140     0.15300
H62         H  0.50440173  0.34857732  0.03745940     0.15100
C63         C  0.62935636  0.51256965  0.93933065     0.86900
C64         C  0.62024216  0.49664565  0.89992607    -0.53300
C65         C  0.58674657  0.49072519  0.89447632     0.09800
C66         C  0.56471865  0.50188933  0.92878329     0.20800
C67         C  0.60773736  0.54516610  0.94126743    -0.54000
C68         C  0.57389012  0.53957974  0.93584615     0.09900
C69         C  0.61289494  0.48890344  0.96956287    -0.53600
C70         C  0.57919691  0.48312433  0.96406654     0.10500
H71         H  0.63900158  0.49014147  0.87815220     0.15000
H72         H  0.53747952  0.49699720  0.92379645     0.00800
H73         H  0.61709949  0.57039605  0.94737951     0.15300
H74         H  0.62702112  0.47705771  0.99277225     0.15100
O75         O  0.61986412  0.40111979  0.35138783    -0.57400
C76         C  0.55961294  0.34816048  0.37272129     0.75200
O77         O  0.55773029  0.46460505  0.41493337    -0.58500
C78         C  0.63431121  0.42988725  0.35220128     0.75200
C79         C  0.53211938  0.43129046  0.28605998     0.77600
Cd80       Cd  0.56261412  0.42048015  0.36163218     1.37500
O81         O  0.58056875  0.36643843  0.39118006    -0.57400
O82         O  0.56240191  0.43925393  0.29303434    -0.56200
C83         C  0.53607096  0.44789856  0.43419779     0.77600
O84         O  0.51453197  0.42322383  0.31529927    -0.58600
O85         O  0.54037396  0.36349308  0.34951940    -0.57000
O86         O  0.61537098  0.45533878  0.35756106    -0.57000
O87         O  0.52455748  0.42161351  0.41774284    -0.56200
O88         O  0.57372733  0.35472979  0.65001765    -0.57400
C89         C  0.63037011  0.42519578  0.65976973     0.75200
O90         O  0.55708303  0.45615780  0.61555410    -0.58500
C91         C  0.54660499  0.34072069  0.66121992     0.75200
C92         C  0.55084995  0.43260726  0.74668143     0.77600
Cd93       Cd  0.55926085  0.41278809  0.66693299     1.37500
O94         O  0.61157851  0.44534462  0.67836412    -0.57400
O95         O  0.56491725  0.40548375  0.73600069    -0.56200
C96         C  0.53204871  0.44364303  0.59783809     0.77600
O97         O  0.53614952  0.44937737  0.72034587    -0.58600
O98         O  0.61605873  0.39975845  0.64417143    -0.57000
O99         O  0.52428097  0.36026205  0.67508708    -0.57000
O100        O  0.51647453  0.41996551  0.61520526    -0.56200
O101        O  0.34271979  0.86923056  0.39597708    -0.57400
C102        C  0.27446325  0.92672135  0.38233779     0.75200
O103        O  0.39078393  0.93716643  0.42172323    -0.58500
C104        C  0.36734424  0.85708487  0.37727989     0.75200
C105        C  0.34957460  0.94612290  0.29092562     0.77600
Cd106      Cd  0.34644305  0.92647651  0.37194640     1.37500
O107        O  0.29183604  0.90040900  0.38803233    -0.57400
O108        O  0.33411507  0.92036193  0.30361166    -0.56200
C109        C  0.37415685  0.95901304  0.44063378     0.77600
O110        O  0.36642243  0.96300000  0.31583169    -0.58600
O111        O  0.29068095  0.95343536  0.37357169    -0.57000
O112        O  0.38403834  0.87772243  0.35640063    -0.57000
O113        O  0.34764196  0.96949363  0.42444637    -0.56200
O114        O  0.29146669  0.91800773  0.64621426    -0.57400
C115        C  0.35527734  0.85440925  0.65626719     0.75200
O116        O  0.35606792  0.97398449  0.62602913    -0.58500
C117        C  0.27720412  0.94126161  0.66543296     0.75200
C118        C  0.36871368  0.92800193  0.75261371     0.77600
Cd119      Cd  0.34794254  0.92575061  0.67174077     1.37500
O120        O  0.32815134  0.87012301  0.65003811    -0.57400
O121        O  0.34241493  0.91320949  0.74048141    -0.56200
C122        C  0.37653121  0.95829086  0.60427382     0.77600
O123        O  0.38516582  0.94485377  0.72743549    -0.58600
O124        O  0.37967575  0.87199971  0.66911432    -0.57000
O125        O  0.29583638  0.95832347  0.68835203    -0.57000
O126        O  0.38794582  0.93081586  0.61751541    -0.56200
C127        C  0.27687540  0.01416227  0.08991642     0.86900
C128        C  0.28425318  0.99804573  0.12964310    -0.53300
C129        C  0.31749963  0.99247488  0.13687481     0.09800
C130        C  0.34081619  0.00333112  0.10376058     0.20800
C131        C  0.29923682  0.04674485  0.08930760    -0.54000
C132        C  0.33280239  0.04100585  0.09661888     0.09900
C133        C  0.29422124  0.99063881  0.06012906    -0.53600
C134        C  0.32747109  0.98466234  0.06758530     0.10500
H135        H  0.26464998  0.99193549  0.15061095     0.15000
H136        H  0.36769166  0.99817503  0.11012972     0.00800
H137        H  0.29050880  0.07168356  0.08160089     0.15300
H138        H  0.28112433  0.97924442  0.03560061     0.15100
C139        C  0.44064724  0.84819795  0.94825154     0.86900
C140        C  0.42515412  0.85750050  0.90873496    -0.53300
C141        C  0.42202304  0.89152899  0.90244187     0.09800
C142        C  0.43414507  0.91354607  0.93659400     0.20800
C143        C  0.47401830  0.86834411  0.95006967    -0.54000
C144        C  0.47070144  0.90249221  0.94414343     0.09900
C145        C  0.41726614  0.86628456  0.97773732    -0.53600
C146        C  0.41388694  0.90043268  0.97170485     0.10500
H147        H  0.41723869  0.83864940  0.88742902     0.15000
H148        H  0.43157713  0.94119277  0.93132622     0.00800
H149        H  0.49802769  0.85656997  0.95643420     0.15300
H150        H  0.40253220  0.85382150  0.99991974     0.15100
C151        C  0.63267977  0.03174740  0.94849509     0.86900
C152        C  0.61659861  0.05599924  0.97865036    -0.53300
C153        C  0.58285123  0.06136975  0.97332777     0.09800
C154        C  0.56796488  0.04166950  0.93866167     0.20800
C155        C  0.61079162  0.99905749  0.95176144    -0.54000
C156        C  0.57694784  0.00435674  0.94657312     0.09900
C157        C  0.62317024  0.04655769  0.90894040    -0.53600
C158        C  0.58961620  0.05191839  0.90371723     0.10500
H159        H  0.63072511  0.06799576  0.00201732     0.15000
H160        H  0.54068627  0.04620164  0.93402657     0.00800
H161        H  0.62002687  0.97421765  0.95931383     0.15300
H162        H  0.64175597  0.05230539  0.88664822     0.15100
C163        C  0.47028176  0.19686976  0.09623726     0.86900
C164        C  0.49525446  0.17944416  0.06825875    -0.53300
C165        C  0.49975739  0.14538558  0.07461801     0.09800
C166        C  0.47844639  0.13185383  0.10890077     0.20800
C167        C  0.43764619  0.17533705  0.09199342    -0.54000
C168        C  0.44181834  0.14129040  0.09872470     0.09900
C169        C  0.48299436  0.18834163  0.13714974    -0.53600
C170        C  0.48725664  0.15456845  0.14382220     0.10500
H171        H  0.50817693  0.19311058  0.04524069     0.15000
H172        H  0.48179030  0.10457512  0.11537627     0.00800
H173        H  0.41341449  0.18533998  0.08371403     0.15300
H174        H  0.48761498  0.20749686  0.15935308     0.15100
O175        O  0.61489581  0.14703375  0.39049999    -0.57400
C176        C  0.55512334  0.20184658  0.38008895     0.75200
O177        O  0.51200230  0.12621549  0.32721531    -0.58500
C178        C  0.63048377  0.12181309  0.37675658     0.75200
C179        C  0.52767023  0.09814020  0.44351344     0.77600
Cd180      Cd  0.55802375  0.12885015  0.37528206     1.37500
O181        O  0.57439790  0.18491316  0.40170863    -0.57400
O182        O  0.51855597  0.12638160  0.43015045    -0.56200
C183        C  0.53018339  0.11906224  0.29815690     0.77600
O184        O  0.54825925  0.08167908  0.42273953    -0.58600
O185        O  0.53680062  0.18490785  0.35697283    -0.57000
O186        O  0.61232771  0.09827354  0.36227215    -0.57000
O187        O  0.56058634  0.11199438  0.30549112    -0.56200
O188        O  0.56793715  0.17922766  0.64733852    -0.57400
C189        C  0.62932626  0.11790055  0.66040819     0.75200
O190        O  0.53810495  0.08514451  0.72739740    -0.58500
C191        C  0.54413875  0.19426873  0.66454071     0.75200
C192        C  0.52721834  0.09274172  0.60525307     0.77600
Cd193      Cd  0.55806263  0.12291726  0.67251889     1.37500
O194        O  0.61323676  0.14522332  0.65639115    -0.57400
O195        O  0.51060500  0.11234505  0.62724086    -0.56200
C196        C  0.55397122  0.10233984  0.75278427     0.77600
O197        O  0.55558145  0.08340364  0.61773079    -0.58600
O198        O  0.61215198  0.09180852  0.66929424    -0.57000
O199        O  0.52495508  0.17583008  0.68532235    -0.57000
O200        O  0.56833847  0.12902911  0.74091147    -0.56200
O201        O  0.11716406  0.60489450  0.35862130    -0.57400
C202        C  0.04134205  0.70007493  0.36182432     0.75200
O203        O  0.04846174  0.58541173  0.30462431    -0.58500
C204        C  0.13362052  0.63252919  0.35813055     0.75200
C205        C  0.03202671  0.60279139  0.42344356     0.77600
Cd206      Cd  0.06089702  0.63092952  0.35303914     1.37500
O207        O  0.06704535  0.68761273  0.37796347    -0.57400
O208        O  0.01520513  0.62227097  0.40185069    -0.56200
C209        C  0.05190716  0.60437061  0.27524640     0.77600
O210        O  0.06011213  0.59328717  0.41010523    -0.58600
O211        O  0.02354267  0.68009857  0.34115110    -0.57000
O212        O  0.11640450  0.65924846  0.35514437    -0.57000
O213        O  0.05564435  0.63565779  0.28220351    -0.56200
O214        O  0.11587511  0.64413351  0.62697210    -0.57400
C215        C  0.05646851  0.70699574  0.64651099     0.75200
O216        O  0.04628149  0.58800776  0.60683878    -0.58500
C217        C  0.13038339  0.61887616  0.64195274     0.75200
C218        C  0.03669742  0.62518780  0.73365015     0.77600
Cd219      Cd  0.05958822  0.63429372  0.65397170     1.37500
O220        O  0.02972896  0.68924063  0.64607601    -0.57400
O221        O  0.06552931  0.63648216  0.72484341    -0.56200
C222        C  0.02754014  0.60616856  0.58572177     0.77600
O223        O  0.01866695  0.61518982  0.70547262    -0.58600
O224        O  0.08365213  0.69097869  0.65071863    -0.57000
O225        O  0.11156230  0.59873836  0.66105542    -0.57000
O226        O  0.02054935  0.63524584  0.59891250    -0.56200
C227        C  0.96903050  0.69541501  0.93425123     0.86900
C228        C  0.98434686  0.68669321  0.89442275    -0.53300
C229        C  0.98862135  0.65288301  0.88786432     0.09800
C230        C  0.97734728  0.63033677  0.92175651     0.20800
C231        C  0.93602327  0.67427720  0.93564665    -0.54000
C232        C  0.94030316  0.64022769  0.92908631     0.09900
C233        C  0.99196635  0.67796728  0.96399901    -0.53600
C234        C  0.99659021  0.64404533  0.95740009     0.10500
H235        H  0.99082146  0.70575033  0.87287005     0.15000
H236        H  0.98142075  0.60282516  0.91669571     0.00800
H237        H  0.91126790  0.68459499  0.94088849     0.15300
H238        H  0.00399084  0.69147517  0.98785715     0.15100
C239        C  0.13231438  0.53348813  0.08108274     0.86900
C240        C  0.12218648  0.54864783  0.12049249    -0.53300
C241        C  0.08843050  0.55294835  0.12515269     0.09800
C242        C  0.06737897  0.54191919  0.09004776     0.20800
C243        C  0.11133007  0.50026686  0.07765757    -0.54000
C244        C  0.07737507  0.50485596  0.08248220     0.09900
C245        C  0.11598243  0.55703559  0.05054923    -0.53600
C246        C  0.08204682  0.56162821  0.05542887     0.10500
H247        H  0.14024556  0.55501423  0.14311661     0.15000
H248        H  0.03986312  0.54529730  0.09444705     0.00800
H249        H  0.12165950  0.47562910  0.07048173     0.15300
H250        H  0.13003762  0.56911468  0.02726528     0.15100
C251        C  0.94120037  0.34902693  0.08632382     0.86900
C252        C  0.91397619  0.36620811  0.06105761    -0.53300
C253        C  0.91150623  0.40059472  0.06608773     0.09800
C254        C  0.93631560  0.41483716  0.09649769     0.20800
C255        C  0.97400177  0.36893266  0.07800408    -0.54000
C256        C  0.97146141  0.40326471  0.08332457     0.09900
C257        C  0.93144038  0.35983080  0.12794577    -0.53600
C258        C  0.92928382  0.39420222  0.13342100     0.10500
H259        H  0.89743462  0.35293521  0.04126448     0.15000
H260        H  0.93463286  0.44268180  0.10128115     0.00800
H261        H  0.99739760  0.35681237  0.06954682     0.15300
H262        H  0.92663457  0.34180171  0.15112020     0.15100
C263        C  0.77848134  0.51061088  0.93888817     0.86900
C264        C  0.79422977  0.48673925  0.96895808    -0.53300
C265        C  0.82804557  0.48198529  0.96445178     0.09800
C266        C  0.84318742  0.50147464  0.92981058     0.20800
C267        C  0.79985955  0.54372385  0.94200781    -0.54000
C268        C  0.83377611  0.53878501  0.93680895     0.09900
C269        C  0.78849867  0.49594604  0.89911637    -0.53600
C270        C  0.82226409  0.49138624  0.89429697     0.10500
H271        H  0.77986636  0.47530523  0.99245388     0.15000
H272        H  0.87054646  0.49707751  0.92558741     0.00800
H273        H  0.78966495  0.56891399  0.94566082     0.15300
H274        H  0.77052312  0.49153556  0.87583111     0.15100
O275        O  0.87112930  0.37359361  0.33541142    -0.57400
C276        C  0.78016850  0.43447068  0.34727037     0.75200
O277        O  0.85745827  0.47471732  0.40724100    -0.58500
C278        C  0.85834068  0.35767751  0.36368970     0.75200
C279        C  0.88761991  0.44220364  0.28370630     0.77600
Cd280      Cd  0.85261101  0.42994241  0.35558971     1.37500
O281        O  0.79649972  0.40728535  0.34308891    -0.57400
O282        O  0.85736554  0.45148904  0.28785738    -0.56200
C283        C  0.87720990  0.45772384  0.42838132     0.77600
O284        O  0.90287281  0.43387446  0.31435983    -0.58600
O285        O  0.79754389  0.46092533  0.35455685    -0.57000
O286        O  0.84287654  0.37540292  0.38868268    -0.57000
O287        O  0.88792493  0.43040397  0.41383701    -0.56200
O288        O  0.82645185  0.37382482  0.65653902    -0.57400
C289        C  0.77526711  0.43585504  0.65889210     0.75200
O290        O  0.85754744  0.47722023  0.71031225    -0.58500
C291        C  0.85406799  0.35870151  0.66154135     0.75200
C292        C  0.87455287  0.45956421  0.59203243     0.77600
Cd293      Cd  0.84745893  0.43126025  0.66292892     1.37500
O294        O  0.79191841  0.45365127  0.68290187    -0.57400
O295        O  0.89146914  0.43866611  0.61174754    -0.56200
C296        C  0.86152295  0.45787486  0.73916541     0.77600
O297        O  0.84781633  0.47012296  0.60765274    -0.58600
O298        O  0.79220725  0.41691236  0.63661545    -0.57000
O299        O  0.87977071  0.37736043  0.66768904    -0.57000
O300        O  0.86409969  0.42654003  0.73170925    -0.56200
O301        O  0.86995234  0.19354033  0.34361936    -0.57400
C302        C  0.77639554  0.12904603  0.37011172     0.75200
O303        O  0.89478582  0.12498961  0.31944720    -0.58500
C304        C  0.85694242  0.21124161  0.37032548     0.75200
C305        C  0.87679094  0.11006764  0.43801775     0.77600
Cd306      Cd  0.84890517  0.13827838  0.36691494     1.37500
O307        O  0.79102181  0.15720504  0.37630071    -0.57400
O308        O  0.85495612  0.09385330  0.41842153    -0.56200
C309        C  0.87582578  0.12411727  0.28987535     0.77600
O310        O  0.88868463  0.13641239  0.42211983    -0.58600
O311        O  0.79534212  0.10440686  0.36113948    -0.57000
O312        O  0.84062895  0.19509898  0.39596143    -0.57000
O313        O  0.84452447  0.12514521  0.29671991    -0.56200
O314        O  0.82480478  0.19604290  0.65609401    -0.57400
C315        C  0.77391798  0.12686667  0.66044058     0.75200
O316        O  0.89001444  0.13205715  0.62120208    -0.58500
C317        C  0.85154801  0.21196010  0.66465386     0.75200
C318        C  0.85450594  0.11674130  0.75002284     0.77600
Cd319      Cd  0.84442177  0.13919482  0.67075199     1.37500
O320        O  0.78913218  0.15201647  0.64571861    -0.57400
O321        O  0.83874394  0.14347585  0.74165446    -0.56200
C322        C  0.87410702  0.10987900  0.60156161     0.77600
O323        O  0.86875942  0.10174731  0.72187407    -0.58600
O324        O  0.79176389  0.10629397  0.67949563    -0.57000
O325        O  0.87592430  0.19408454  0.67652152    -0.57000
O326        O  0.84735206  0.09852905  0.61677496    -0.56200
C327        C  0.12744938  0.01137165  0.08505393     0.86900
C328        C  0.11054253  0.98885154  0.05377847    -0.53300
C329        C  0.07688152  0.98295068  0.05973797     0.09800
C330        C  0.06291464  0.00051766  0.09640581     0.20800
C331        C  0.10602618  0.04406756  0.08524024    -0.54000
C332        C  0.07214254  0.03838677  0.09081295     0.09900
C333        C  0.11876204  0.99437484  0.12378789    -0.53600
C334        C  0.08534122  0.98831038  0.12991371     0.10500
H335        H  0.12422664  0.97802141  0.02942429     0.15000
H336        H  0.03568914  0.99560593  0.10157010     0.00800
H337        H  0.11595943  0.06933159  0.08007677     0.15300
H338        H  0.13786323  0.98808614  0.14509781     0.15100
C339        C  0.96634171  0.84567351  0.93472075     0.86900
C340        C  0.98968078  0.86313234  0.96465264    -0.53300
C341        C  0.99479628  0.89716793  0.95878920     0.09800
C342        C  0.97599779  0.91079791  0.92305595     0.20800
C343        C  0.93367815  0.86699587  0.93610480    -0.54000
C344        C  0.93892375  0.90098280  0.93017788     0.09900
C345        C  0.98185892  0.85449947  0.89511270    -0.53600
C346        C  0.98724773  0.88834739  0.88888663     0.10500
H347        H  0.00156786  0.84936057  0.98811208     0.15000
H348        H  0.97992370  0.93836774  0.91793162     0.00800
H349        H  0.90867327  0.85754102  0.94229559     0.15300
H350        H  0.98771913  0.83523507  0.87351728     0.15100
C351        C  0.78226004  0.03340785  0.94126690     0.86900
C352        C  0.79154572  0.05156423  0.90319383    -0.53300
C353        C  0.82528908  0.05616581  0.89752728     0.09800
C354        C  0.84709384  0.04235562  0.93041459     0.20800
C355        C  0.80270285  0.00000295  0.93983898    -0.54000
C356        C  0.83660616  0.00487272  0.93432417     0.09900
C357        C  0.79983435  0.05446780  0.97327477    -0.53600
C358        C  0.83359399  0.05962321  0.96737148     0.10500
H359        H  0.77291549  0.06008863  0.88238598     0.15000
H360        H  0.87454352  0.04607823  0.92549873     0.00800
H361        H  0.79229506  0.97482518  0.94420931     0.15300
H362        H  0.78641068  0.06536156  0.99778807     0.15100
C363        C  0.94212014  0.19883374  0.08899891     0.86900
C364        C  0.92854221  0.19029042  0.12982884    -0.53300
C365        C  0.92478305  0.15641284  0.13684467     0.09800
C366        C  0.93415595  0.13373529  0.10226568     0.20800
C367        C  0.97486972  0.17805091  0.08529975    -0.54000
C368        C  0.97058287  0.14390312  0.09203329     0.09900
C369        C  0.91710190  0.18059622  0.06127462    -0.53600
C370        C  0.91317445  0.14666067  0.06813305     0.10500
H371        H  0.92268956  0.20942369  0.15157702     0.15000
H372        H  0.93082097  0.10620327  0.10819499     0.00800
H373        H  0.99899170  0.18927655  0.07741065     0.15300
H374        H  0.90317900  0.19263079  0.03822025     0.15100
O375        O  0.11266757  0.89251784  0.38084833    -0.57400
C376        C  0.03828555  0.84512565  0.36797513     0.75200
O377        O  0.01132954  0.92706769  0.41179920    -0.58500
C378        C  0.12904453  0.91989009  0.37617764     0.75200
C379        C  0.05401982  0.93654163  0.28265546     0.77600
Cd380      Cd  0.05724071  0.91573440  0.36333869     1.37500
O381        O  0.06051768  0.85864649  0.38946840    -0.57400
O382        O  0.07012597  0.91125257  0.29487114    -0.56200
C383        C  0.02778748  0.94978320  0.42997278     0.77600
O384        O  0.03656112  0.95220889  0.30782429    -0.58600
O385        O  0.02291922  0.86482043  0.34508836    -0.57000
O386        O  0.11201881  0.94549860  0.36639229    -0.57000
O387        O  0.05499882  0.95936281  0.41427734    -0.56200
O388        O  0.03162281  0.87041499  0.65346566    -0.57400
C389        C  0.13225969  0.94347355  0.65746785     0.75200
O390        O  0.01674647  0.93031988  0.60955011    -0.58500
C391        C  0.05733702  0.85342397  0.64421948     0.75200
C392        C  0.03989834  0.92675621  0.73849525     0.77600
Cd393      Cd  0.06165097  0.92541355  0.65848148     1.37500
O394        O  0.11855308  0.92452145  0.63215756    -0.57400
O395        O  0.06308603  0.90853454  0.72482454    -0.56200
C396        C  0.02938245  0.95540683  0.59183053     0.77600
O397        O  0.02682225  0.94777552  0.71511406    -0.58600
O398        O  0.11272405  0.95630500  0.68266062    -0.57000
O399        O  0.08449414  0.87004255  0.63995984    -0.57000
O400        O  0.05399863  0.97005536  0.60846885    -0.56200
C401        C  0.03905645  0.98659412  0.52989583    -0.20900
C402        C  0.01906338  0.96398682  0.55160873    -0.08900
C403        C  0.99482813  0.94399962  0.53189943     0.29900
C404        C  0.99462334  0.94274727  0.49122321    -0.20900
C405        C  0.01846946  0.96136173  0.46966259    -0.08900
C406        C  0.03877386  0.98541879  0.48928642     0.29900
F407        F  0.06100354  0.00527983  0.46955271    -0.19500
H408        H  0.05743431  0.00281767  0.54418700     0.18300
H409        H  0.97816161  0.92455528  0.47691658     0.18300
F410        F  0.97382405  0.92286969  0.55168985    -0.19400
C411        C  0.85105902  0.07914101  0.03375403    -0.20900
C412        C  0.85464063  0.08128350  0.99324480    -0.08900
C413        C  0.87769868  0.10492396  0.97768100     0.29900
C414        C  0.89633198  0.12622604  0.00224571    -0.20900
C415        C  0.89274181  0.12408810  0.04271329    -0.08900
C416        C  0.87014127  0.10011322  0.05833503     0.29900
F417        F  0.86579626  0.09752278  0.09724981    -0.19500
H418        H  0.83356124  0.06104391  0.04640171     0.18300
H419        H  0.91385823  0.14431101  0.98960867     0.18300
F420        F  0.88145485  0.10838425  0.93873351    -0.19400
C421        C  0.04251301  0.89399673  0.79956821    -0.20900
C422        C  0.02838989  0.92120389  0.77906930    -0.08900
C423        C  0.00224082  0.93978121  0.79669923     0.29900
C424        C  0.98966742  0.92996704  0.83329335    -0.20900
C425        C  0.00269192  0.90135974  0.85239019    -0.08900
C426        C  0.02984538  0.88404953  0.83544423     0.29900
F427        F  0.04415926  0.85713175  0.85336763    -0.19500
H428        H  0.06290050  0.87931650  0.78722578     0.18300
H429        H  0.96884657  0.94382130  0.84592063     0.18300
F430        F  0.98826133  0.96662589  0.77830798    -0.19400
C431        C  0.88189205  0.92236766  0.91091659    -0.20900
C432        C  0.91171915  0.92651791  0.93241822    -0.08900
C433        C  0.91594417  0.95572692  0.95549255     0.29900
C434        C  0.89117866  0.98074324  0.95622558    -0.20900
C435        C  0.86163327  0.97704255  0.93422534    -0.08900
C436        C  0.85701891  0.94749666  0.91165113     0.29900
F437        F  0.82925874  0.94365227  0.88903695    -0.19500
H438        H  0.87831511  0.90011499  0.89274176     0.18300
H439        H  0.89501529  0.00305614  0.97424626     0.18300
F440        F  0.94375751  0.95977419  0.97797964    -0.19400
C441        C  0.08290383  0.93223338  0.21881294    -0.20900
C442        C  0.05767165  0.94743765  0.24154633    -0.08900
C443        C  0.03868698  0.97389802  0.22521523     0.29900
C444        C  0.04628990  0.98590115  0.18771538    -0.20900
C445        C  0.07310628  0.97199980  0.16630659    -0.08900
C446        C  0.09059911  0.94427039  0.18184060     0.29900
F447        F  0.11581309  0.92915630  0.16160330    -0.19500
H448        H  0.09779585  0.91160819  0.23020002     0.18300
H449        H  0.03238243  0.00717906  0.17624743     0.18300
F450        F  0.01354382  0.98876469  0.24574087    -0.19400
C451        C  0.05327634  0.09757338  0.10760456    -0.20900
C452        C  0.04660732  0.06601616  0.08975654    -0.08900
C453        C  0.01545105  0.06115618  0.07089909     0.29900
C454        C  0.99138652  0.08697885  0.07089939    -0.20900
C455        C  0.99781639  0.11822687  0.08941490    -0.08900
C456        C  0.02916506  0.12344739  0.10748927     0.29900
F457        F  0.03585728  0.15289295  0.12668243    -0.19500
H458        H  0.07690579  0.10191859  0.12257417     0.18300
H459        H  0.96756272  0.08252693  0.05633679     0.18300
F460        F  0.00841873  0.03179779  0.05164706    -0.19400
C461        C  0.03512054  0.93588711  0.04945032    -0.20900
C462        C  0.05588510  0.96128636  0.03360128    -0.08900
C463        C  0.05616277  0.96580671  0.99307805     0.29900
C464        C  0.03622562  0.94499409  0.96904669    -0.20900
C465        C  0.01590702  0.91905815  0.98481898    -0.08900
C466        C  0.01547135  0.91483998  0.02546199     0.29900
F467        F  0.99531897  0.89106757  0.04225872    -0.19500
H468        H  0.03437296  0.93210105  0.08057624     0.18300
H469        H  0.03702992  0.94893205  0.93796109     0.18300
F470        F  0.07503147  0.99089229  0.97677974    -0.19400
C471        C  0.83968155  0.12234176  0.82030297    -0.20900
C472        C  0.85380507  0.10288330  0.79008527    -0.08900
C473        C  0.86255593  0.06888871  0.79762509     0.29900
C474        C  0.85526925  0.05430812  0.83380287    -0.20900
C475        C  0.83888156  0.07321934  0.86266179    -0.08900
C476        C  0.83218380  0.10764048  0.85621529     0.29900
F477        F  0.81715403  0.12662917  0.88421309    -0.19500
H478        H  0.83288017  0.14858476  0.81554399     0.18300
H479        H  0.86053412  0.02767351  0.83847151     0.18300
F480        F  0.87576519  0.04898771  0.76925885    -0.19400
C481        C  0.86464983  0.07774717  0.49894503    -0.20900
C482        C  0.88496589  0.10130387  0.47893985    -0.08900
C483        C  0.90807692  0.12119087  0.50047126     0.29900
C484        C  0.90732814  0.12086982  0.54114723    -0.20900
C485        C  0.88358699  0.10080280  0.56107991    -0.08900
C486        C  0.86394112  0.07739013  0.53962028     0.29900
F487        F  0.84167464  0.05637598  0.55770203    -0.19500
H488        H  0.84702154  0.06167297  0.48325935     0.18300
H489        H  0.92319622  0.13871296  0.55684394     0.18300
F490        F  0.92926282  0.14331511  0.48244694    -0.19400
C491        C  0.92382501  0.13252311  0.24328300    -0.20900
C492        C  0.88939805  0.12539783  0.24953004    -0.08900
C493        C  0.86754417  0.12518006  0.21721932     0.29900
C494        C  0.87949699  0.13423670  0.18036656    -0.20900
C495        C  0.91337560  0.14315377  0.17482882    -0.08900
C496        C  0.93571842  0.14143247  0.20629767     0.29900
F497        F  0.96874266  0.14973941  0.20154828    -0.19500
H498        H  0.94127250  0.13302199  0.26742492     0.18300
H499        H  0.86192136  0.13574926  0.15645973     0.18300
F500        F  0.83426234  0.11785264  0.22141966    -0.19400
C501        C  0.82814147  0.30319508  0.64386046    -0.20900
C502        C  0.85534621  0.32120102  0.66021554    -0.08900
C503        C  0.88233995  0.30297428  0.67607969     0.29900
C504        C  0.88134834  0.26738765  0.67673687    -0.20900
C505        C  0.85359472  0.24943669  0.66143948    -0.08900
C506        C  0.82723074  0.26779918  0.64420458     0.29900
F507        F  0.80033398  0.25173645  0.62784708    -0.19500
H508        H  0.80724118  0.31657860  0.63091866     0.18300
H509        H  0.90199927  0.25389399  0.69000772     0.18300
F510        F  0.90907928  0.31943441  0.69216517    -0.19400
C511        C  0.84691746  0.30370225  0.39927085    -0.20900
C512        C  0.86064090  0.32035070  0.36684061    -0.08900
C513        C  0.87525467  0.30084505  0.33696810     0.29900
C514        C  0.87481789  0.26543704  0.33898069    -0.20900
C515        C  0.85987303  0.24872332  0.37066760    -0.08900
C516        C  0.84651449  0.26825532  0.40128980     0.29900
F517        F  0.83249552  0.25323478  0.43289026    -0.19500
H518        H  0.83585954  0.31811558  0.42285537     0.18300
H519        H  0.88546647  0.25106852  0.31510780     0.18300
F520        F  0.88913173  0.31579766  0.30521703    -0.19400
C521        C  0.86319043  0.48935835  0.48912303    -0.20900
C522        C  0.88457313  0.46691043  0.46932317    -0.08900
C523        C  0.90836584  0.44845039  0.49087020     0.29900
C524        C  0.90756097  0.44910282  0.53148789    -0.20900
C525        C  0.88311475  0.46813447  0.55128263    -0.08900
C526        C  0.86242077  0.49006482  0.52974229     0.29900
F527        F  0.83930624  0.50997324  0.54769274    -0.19500
H528        H  0.84493154  0.50419888  0.47331908     0.18300
H529        H  0.92418713  0.43241690  0.54727177     0.18300
F530        F  0.93062060  0.42761583  0.47285452    -0.19400
C531        C  0.83014975  0.50743429  0.82523632    -0.20900
C532        C  0.83734469  0.48516779  0.85571287    -0.08900
C533        C  0.85781587  0.45693453  0.84868327     0.29900
C534        C  0.86830455  0.44943840  0.81073513    -0.20900
C535        C  0.85902015  0.47044243  0.77959834    -0.08900
C536        C  0.84103070  0.50038277  0.78753996     0.29900
F537        F  0.83122997  0.52129284  0.75848999    -0.19500
H538        H  0.81498550  0.52976856  0.83047457     0.18300
H539        H  0.88209763  0.42624619  0.80539547     0.18300
F540        F  0.86555612  0.43538323  0.87793703    -0.19400
C541        C  0.93265087  0.25516324  0.05185276    -0.20900
C542        C  0.94689276  0.23746737  0.08327632    -0.08900
C543        C  0.96480461  0.25689224  0.11101333     0.29900
C544        C  0.96389042  0.29253900  0.11046407    -0.20900
C545        C  0.94551041  0.31019685  0.08203344    -0.08900
C546        C  0.93232992  0.29076165  0.05081514     0.29900
F547        F  0.92053618  0.30540857  0.01808090    -0.19500
H548        H  0.92189433  0.24200006  0.02730248     0.18300
H549        H  0.97667332  0.30644829  0.13336591     0.18300
F550        F  0.98200299  0.24137004  0.13988244    -0.19400
C551        C  0.89778451  0.43611972  0.17443234    -0.20900
C552        C  0.92161086  0.41000462  0.17161863    -0.08900
C553        C  0.93757787  0.39874168  0.20554431     0.29900
C554        C  0.92853093  0.41209433  0.24166945    -0.20900
C555        C  0.90285062  0.43636005  0.24495607    -0.08900
C556        C  0.88815076  0.44901125  0.21080804     0.29900
F557        F  0.86360000  0.47277750  0.21262496    -0.19500
H558        H  0.88544045  0.44539761  0.14857818     0.18300
H559        H  0.94018600  0.40168190  0.26737892     0.18300
F560        F  0.96155940  0.37436663  0.20392456    -0.19400
C561        C  0.83627886  0.43049630  0.00633955    -0.20900
C562        C  0.84849873  0.46161044  0.99189784    -0.08900
C563        C  0.88008924  0.47350857  0.00455695     0.29900
C564        C  0.89938952  0.45424561  0.03008933    -0.20900
C565        C  0.88829588  0.42219310  0.04275375    -0.08900
C566        C  0.85592668  0.41088974  0.03145284     0.29900
F567        F  0.84282930  0.38135745  0.04525501    -0.19500
H568        H  0.81171078  0.42106099  0.99765990     0.18300
H569        H  0.92314958  0.46439877  0.03933599     0.18300
F570        F  0.89222466  0.50420888  0.99310130    -0.19400
C571        C  0.05470197  0.44826146  0.10374163    -0.20900
C572        C  0.05199856  0.47709116  0.08008867    -0.08900
C573        C  0.02375433  0.48034747  0.05593212     0.29900
C574        C  0.99852106  0.45535169  0.05574614    -0.20900
C575        C  0.00046731  0.42718276  0.08040623    -0.08900
C576        C  0.02893855  0.42362416  0.10424825     0.29900
F577        F  0.03104206  0.39726577  0.12937504    -0.19500
H578        H  0.07605193  0.44559042  0.12297769     0.18300
H579        H  0.97769010  0.45798404  0.03624806     0.18300
F580        F  0.02054648  0.50764516  0.03229026    -0.19400
C581        C  0.93613183  0.75150649  0.94390334    -0.20900
C582        C  0.96687261  0.73407535  0.94001265    -0.08900
C583        C  0.99670907  0.75369230  0.93874086     0.29900
C584        C  0.99555880  0.78915454  0.93866006    -0.20900
C585        C  0.96477916  0.80679556  0.94010535    -0.08900
C586        C  0.93492627  0.78713915  0.94405654     0.29900
F587        F  0.90412776  0.80135256  0.94702899    -0.19500
H588        H  0.91239736  0.73817176  0.94577149     0.18300
H589        H  0.01910768  0.80308977  0.93607426     0.18300
F590        F  0.02723113  0.73849603  0.93594902    -0.19400
C591        C  0.88505229  0.61921237  0.95611631    -0.20900
C592        C  0.91180551  0.61535875  0.92955965    -0.08900
C593        C  0.91115840  0.58746296  0.90393494     0.29900
C594        C  0.88516890  0.56348371  0.90597030    -0.20900
C595        C  0.85921875  0.56653277  0.93352463    -0.08900
C596        C  0.85889428  0.59517011  0.95803177     0.29900
F597        F  0.83421342  0.59928182  0.98491980    -0.19500
H598        H  0.88484583  0.64034890  0.97631568     0.18300
H599        H  0.88538992  0.54242800  0.88565530     0.18300
F600        F  0.93518023  0.58344256  0.87630293    -0.19400
C601        C  0.04280848  0.60160614  0.96564008    -0.20900
C602        C  0.01831387  0.62268358  0.98237395    -0.08900
C603        C  0.01493339  0.62344852  0.02300391     0.29900
C604        C  0.03593966  0.60378991  0.04635889    -0.20900
C605        C  0.06086979  0.58311209  0.02980036    -0.08900
C606        C  0.06410163  0.58213635  0.98905858     0.29900
F607        F  0.08702367  0.56157103  0.97179874    -0.19500
H608        H  0.04569111  0.60051798  0.93437975     0.18300
H609        H  0.03277541  0.60487315  0.07757170     0.18300
F610        F  0.99064684  0.64248467  0.04009076    -0.19400
C611        C  0.02581052  0.76217380  0.64058579    -0.20900
C612        C  0.05633494  0.74439415  0.64274694    -0.08900
C613        C  0.08689321  0.76282118  0.64225992     0.29900
C614        C  0.08678739  0.79816581  0.64090486    -0.20900
C615        C  0.05636953  0.81604746  0.64053348    -0.08900
C616        C  0.02573575  0.79773788  0.63964486     0.29900
F617        F  0.99576732  0.81410169  0.63844037    -0.19500
H618        H  0.00195937  0.74859895  0.64050632     0.18300
H619        H  0.11071322  0.81159991  0.64162097     0.18300
F620        F  0.11704891  0.74686396  0.64411756    -0.19400
C621        C  0.04737982  0.63442091  0.80437210    -0.20900
C622        C  0.02459569  0.62597813  0.77447124    -0.08900
C623        C  0.99005035  0.62300029  0.78355787     0.29900
C624        C  0.97863370  0.63009390  0.82123617    -0.20900
C625        C  0.00136698  0.63995439  0.85037774    -0.08900
C626        C  0.03587940  0.64156606  0.84191117     0.29900
F627        F  0.05822795  0.65179166  0.86945973    -0.19500
H628        H  0.07406186  0.63706344  0.79829104     0.18300
H629        H  0.95181780  0.62970437  0.82712723     0.18300
F630        F  0.96703788  0.61565409  0.75559044    -0.19400
C631        C  0.01923577  0.75471140  0.33574867    -0.20900
C632        C  0.03386996  0.73647635  0.36625456    -0.08900
C633        C  0.04534371  0.75409423  0.39928643     0.29900
C634        C  0.04440230  0.78943708  0.40055942    -0.20900
C635        C  0.03231176  0.80800440  0.36886682    -0.08900
C636        C  0.01868165  0.79031908  0.33680067     0.29900
F637        F  0.00744771  0.80729756  0.30521136    -0.19500
H638        H  0.01042960  0.74156943  0.30995520     0.18300
H639        H  0.05467745  0.80237519  0.42576290     0.18300
F640        F  0.05884161  0.73719863  0.42975934    -0.19400
C641        C  0.99830112  0.61587633  0.48277659    -0.20900
C642        C  0.02152159  0.59473393  0.46375905    -0.08900
C643        C  0.03941477  0.57089247  0.48588123     0.29900
C644        C  0.03744104  0.57147710  0.52643214    -0.20900
C645        C  0.01822726  0.59624279  0.54557220    -0.08900
C646        C  0.99666928  0.61677167  0.52338505     0.29900
F647        F  0.97649358  0.64005081  0.54076089    -0.19500
H648        H  0.98381158  0.63414557  0.46649369     0.18300
H649        H  0.05387641  0.55499100  0.54274763     0.18300
F650        F  0.06129221  0.54917872  0.46866879    -0.19400
C651        C  0.06039157  0.55571362  0.22975123    -0.20900
C652        C  0.05460862  0.59059461  0.23524945    -0.08900
C653        C  0.05674236  0.61242677  0.20289731     0.29900
C654        C  0.06616934  0.59970181  0.16648126    -0.20900
C655        C  0.07383405  0.56528078  0.16188459    -0.08900
C656        C  0.07025699  0.54319116  0.19346174     0.29900
F657        F  0.07784974  0.50978974  0.18955814    -0.19500
H658        H  0.05925842  0.53838535  0.25406566     0.18300
H659        H  0.06896089  0.61696516  0.14225229     0.18300
F660        F  0.05131862  0.64628079  0.20673015    -0.19400
C661        C  0.72096881  0.09318778  0.67051522    -0.20900
C662        C  0.73713936  0.12257236  0.65649246    -0.08900
C663        C  0.71758730  0.14867985  0.64052390     0.29900
C664        C  0.68260249  0.14610558  0.64054469    -0.20900
C665        C  0.66629652  0.11747678  0.65611020    -0.08900
C666        C  0.68579246  0.09044686  0.67005622     0.29900
F667        F  0.67098131  0.06206937  0.68472365    -0.19500
H668        H  0.73550838  0.07262573  0.68262942     0.18300
H669        H  0.66819741  0.16711731  0.62923015     0.18300
F670        F  0.73204466  0.17742174  0.62626945    -0.19400
C671        C  0.68537029  0.14863364  0.39425386    -0.20900
C672        C  0.66791569  0.12123702  0.37713858    -0.08900
C673        C  0.68663720  0.09514976  0.35939610     0.29900
C674        C  0.72199011  0.09738979  0.35763365    -0.20900
C675        C  0.73920138  0.12558991  0.37348393    -0.08900
C676        C  0.72041961  0.15089565  0.39249246     0.29900
F677        F  0.73582676  0.17799926  0.40955694    -0.19500
H678        H  0.67181904  0.16889542  0.40864005     0.18300
H679        H  0.73585371  0.07738854  0.34318820     0.18300
F680        F  0.67089821  0.06787117  0.34316700    -0.19400
C681        C  0.49551244  0.10804339  0.50467437    -0.20900
C682        C  0.51769462  0.08749489  0.48320691    -0.08900
C683        C  0.53553309  0.06199466  0.50276010     0.29900
C684        C  0.53511309  0.06081580  0.54336675    -0.20900
C685        C  0.51673595  0.08475146  0.56499340    -0.08900
C686        C  0.49489256  0.10669603  0.54523356     0.29900
F687        F  0.47626173  0.12990879  0.56488603    -0.19500
H688        H  0.48099303  0.12751299  0.49036402     0.18300
H689        H  0.55173173  0.04326686  0.55789247     0.18300
F690        F  0.55635392  0.04074764  0.48317019    -0.19400
C691        C  0.48532546  0.13655515  0.25167724    -0.20900
C692        C  0.51721375  0.12212346  0.25783903    -0.08900
C693        C  0.53795582  0.11571903  0.22535878     0.29900
C694        C  0.52762881  0.12530453  0.18807951    -0.20900
C695        C  0.49660509  0.14133210  0.18250984    -0.08900
C696        C  0.47518542  0.14625704  0.21447973     0.29900
F697        F  0.44478722  0.16129301  0.20982964    -0.19500
H698        H  0.46878852  0.14191039  0.27595438     0.18300
H699        H  0.54461421  0.12171600  0.16385847     0.18300
F700        F  0.56883814  0.10166892  0.22970350    -0.19400
C701        C  0.72566334  0.00023264  0.94679953    -0.20900
C702        C  0.74375334  0.03120164  0.94675656    -0.08900
C703        C  0.72499259  0.06141523  0.94950852     0.29900
C704        C  0.68978136  0.06054940  0.95191813    -0.20900
C705        C  0.67146199  0.02969854  0.95151535    -0.08900
C706        C  0.69025436  0.99933334  0.94867201     0.29900
F707        F  0.67515923  0.96857644  0.94492562    -0.19500
H708        H  0.73832873  0.97626915  0.94367420     0.18300
H709        H  0.67653639  0.08449898  0.95268905     0.18300
F710        F  0.74071096  0.09217420  0.94855386    -0.19400
C711        C  0.54958924  0.05191923  0.84707166    -0.20900
C712        C  0.57635521  0.06715707  0.86763823    -0.08900
C713        C  0.59237593  0.09593370  0.85211714     0.29900
C714        C  0.58323536  0.10805017  0.81582825    -0.20900
C715        C  0.55823729  0.09157983  0.79366857    -0.08900
C716        C  0.54070713  0.06382491  0.81003200     0.29900
F717        F  0.51584607  0.04769935  0.78997499    -0.19500
H718        H  0.53676773  0.02983136  0.85880668     0.18300
H719        H  0.59705578  0.12962148  0.80433872     0.18300
F720        F  0.61760585  0.11195444  0.87169534    -0.19400
C721        C  0.56076410  0.07679925  0.03929173    -0.20900
C722        C  0.56212789  0.08317386  0.99927802    -0.08900
C723        C  0.54272011  0.10965571  0.98410144     0.29900
C724        C  0.52287128  0.12976654  0.00871717    -0.20900
C725        C  0.52134362  0.12354991  0.04895943    -0.08900
C726        C  0.54030404  0.09637006  0.06385591     0.29900
F727        F  0.53976738  0.08888183  0.10218862    -0.19500
H728        H  0.57518728  0.05617399  0.05146207     0.18300
H729        H  0.50819290  0.14994960  0.99605260     0.18300
F730        F  0.54341599  0.11649750  0.94551462    -0.19400
C731        C  0.49423477  0.95833128  0.96556294    -0.20900
C732        C  0.49916529  0.92720243  0.94650237    -0.08900
C733        C  0.53075859  0.92063925  0.92943246     0.29900
C734        C  0.55640325  0.94536105  0.93056127    -0.20900
C735        C  0.55097368  0.97695486  0.94861148    -0.08900
C736        C  0.51982185  0.98287092  0.96688105     0.29900
F737        F  0.51418842  0.01215747  0.98668315    -0.19500
H738        H  0.47047157  0.96363971  0.97979393     0.18300
H739        H  0.58011018  0.94026948  0.91611240     0.18300
F740        F  0.53635697  0.89111078  0.91007862    -0.19400
C741        C  0.22032837  0.98532102  0.08238785    -0.20900
C742        C  0.23837125  0.01628294  0.08349111    -0.08900
C743        C  0.21932897  0.04658146  0.08167627     0.29900
C744        C  0.18381775  0.04537767  0.08014752    -0.20900
C745        C  0.16603023  0.01420479  0.08054829    -0.08900
C746        C  0.18516825  0.98416946  0.08080500     0.29900
F747        F  0.16971395  0.95327798  0.08157947    -0.19500
H748        H  0.23368320  0.96147750  0.08410787     0.18300
H749        H  0.17065715  0.06923585  0.08023879     0.18300
F750        F  0.23407250  0.07764619  0.08327992    -0.19400
C751        C  0.38087045  0.12499953  0.10932391    -0.20900
C752        C  0.41350688  0.11601439  0.09706610    -0.08900
C753        C  0.41880772  0.08267614  0.08360834     0.29900
C754        C  0.39232662  0.05906094  0.08296707    -0.20900
C755        C  0.35984640  0.06772013  0.09587305    -0.08900
C756        C  0.35430657  0.10125092  0.10876931     0.29900
F757        F  0.32366200  0.11094659  0.12216483    -0.19500
H758        H  0.37599432  0.15029855  0.12030225     0.18300
H759        H  0.39734876  0.03394372  0.07157704     0.18300
F760        F  0.44926760  0.07291932  0.06972675    -0.19400
C761        C  0.34977565  0.96696604  0.00250762    -0.20900
C762        C  0.34888322  0.96256130  0.04292234    -0.08900
C763        C  0.36903256  0.93740417  0.05970877     0.29900
C764        C  0.38999852  0.91735903  0.03644451    -0.20900
C765        C  0.39147214  0.92211740  0.99601745    -0.08900
C766        C  0.37094889  0.94709936  0.97921131     0.29900
F767        F  0.37047770  0.95169823  0.94020115    -0.19500
H768        H  0.33433213  0.98615161  0.98900944     0.18300
H769        H  0.40538756  0.89825371  0.05015733     0.18300
F770        F  0.36784038  0.93162775  0.09851604    -0.19400
C771        C  0.22179028  0.96107374  0.69225525    -0.20900
C772        C  0.24053502  0.94702657  0.66155617    -0.08900
C773        C  0.22345947  0.93571010  0.62811077     0.29900
C774        C  0.18837993  0.93663329  0.62638050    -0.20900
C775        C  0.16934726  0.94854596  0.65795384    -0.08900
C776        C  0.18642577  0.96166205  0.69068534     0.29900
F777        F  0.16908052  0.97314081  0.72203539    -0.19500
H778        H  0.23439208  0.96992635  0.71831145     0.18300
H779        H  0.17602853  0.92673380  0.60064595     0.18300
F780        F  0.24059707  0.92284353  0.59730312    -0.19400
C781        C  0.41128413  0.93693884  0.80613352    -0.20900
C782        C  0.38014654  0.92358644  0.79344822    -0.08900
C783        C  0.36153610  0.90267527  0.81905264     0.29900
C784        C  0.37500161  0.89328597  0.85482842    -0.20900
C785        C  0.40677862  0.90514389  0.86650451    -0.08900
C786        C  0.42436688  0.92808977  0.84259560     0.29900
F787        F  0.45505660  0.94025073  0.85343188    -0.19500
H788        H  0.42609295  0.95318144  0.78726710     0.18300
H789        H  0.36080708  0.87610141  0.87326123     0.18300
F790        F  0.33079368  0.89007037  0.80905829    -0.19400
C791        C  0.22037828  0.89456063  0.38953882    -0.20900
C792        C  0.23720406  0.92576287  0.38433904    -0.08900
C793        C  0.21802630  0.95524662  0.37866450     0.29900
C794        C  0.18287464  0.95318733  0.37694828    -0.20900
C795        C  0.16609269  0.92182797  0.38095697    -0.08900
C796        C  0.18522857  0.89250444  0.38789624     0.29900
F797        F  0.17018579  0.86163687  0.39201786    -0.19500
H798        H  0.23447993  0.87144728  0.39392372     0.18300
H799        H  0.16879464  0.97619062  0.37181936     0.18300
F800        F  0.23313710  0.98601916  0.37404073    -0.19400
C801        C  0.40864708  0.95181195  0.54228824    -0.20900
C802        C  0.38343002  0.96857139  0.56357792    -0.08900
C803        C  0.36014405  0.98866449  0.54334021     0.29900
C804        C  0.35986616  0.98867162  0.50267846    -0.20900
C805        C  0.38252302  0.96852108  0.48137428    -0.08900
C806        C  0.40833958  0.95178585  0.50160719     0.29900
F807        F  0.43130798  0.93261345  0.48240671    -0.19500
H808        H  0.42699879  0.93630175  0.55708043     0.18300
H809        H  0.33979544  0.00196654  0.48801877     0.18300
F810        F  0.33503783  0.00496188  0.56248728    -0.19400
C811        C  0.32386717  0.93706882  0.22574966    -0.20900
C812        C  0.34597078  0.95603436  0.24954334    -0.08900
C813        C  0.36158612  0.98524776  0.23402875     0.29900
C814        C  0.35357552  0.99608695  0.19637491    -0.20900
C815        C  0.32962953  0.97828866  0.17402611    -0.02500
C816        C  0.31569999  0.94805991  0.18850234     0.29900
F817        F  0.29379499  0.92938122  0.16677274    -0.19500
H818        H  0.31179333  0.91417858  0.23645997     0.18300
H819        H  0.36482791  0.01929876  0.18537548     0.18300
F820        F  0.38352493  0.00399489  0.25557395    -0.19400
C821        C  0.51990745  0.28624432  0.68409448    -0.20900
C822        C  0.54213636  0.30338599  0.65889700    -0.08900
C823        C  0.56215081  0.28425903  0.63330225     0.29900
C824        C  0.56112533  0.24889621  0.63423465    -0.20900
C825        C  0.54049076  0.23157535  0.66091996    -0.08900
C826        C  0.51920549  0.25058037  0.68538345     0.29900
F827        F  0.49906752  0.23492080  0.71182005    -0.19500
H828        H  0.50426896  0.30044024  0.70410247     0.18300
H829        H  0.57750611  0.23503957  0.61470524     0.18300
F830        F  0.58337274  0.29968238  0.60779339    -0.19400
C831        C  0.68356494  0.45252345  0.68344198    -0.20900
C832        C  0.66715283  0.43053000  0.65722731    -0.08900
C833        C  0.68643045  0.41241071  0.62999627     0.29900
C834        C  0.72145710  0.41529064  0.63003935    -0.20900
C835        C  0.73806418  0.43607119  0.65730265    -0.08900
C836        C  0.71874866  0.45518947  0.68372242     0.29900
F837        F  0.73373867  0.47557088  0.71060393    -0.19500
H838        H  0.66922869  0.46678331  0.70466921     0.18300
H839        H  0.73564291  0.40050672  0.60915613     0.18300
F840        F  0.67153185  0.39153353  0.60355384    -0.19400
C841        C  0.53123853  0.29279848  0.35943636    -0.20900
C842        C  0.55765417  0.31089739  0.37731104    -0.08900
C843        C  0.58208375  0.29291079  0.39833132     0.29900
C844        C  0.58060465  0.25743605  0.39999204    -0.20900
C845        C  0.55476438  0.23934427  0.38095116    -0.08900
C846        C  0.52962701  0.25745280  0.36133584     0.29900
F847        F  0.50348141  0.24110054  0.34382903    -0.19500
H848        H  0.51180517  0.30601646  0.34359170     0.18300
H849        H  0.60019258  0.24407613  0.41542501     0.18300
F850        F  0.60786206  0.30937649  0.41641881    -0.19400
C851        C  0.72442694  0.46431342  0.35241838    -0.20900
C852        C  0.74279149  0.43456602  0.34488582    -0.08900
C853        C  0.72494484  0.40421406  0.33711145     0.29900
C854        C  0.68983243  0.40344031  0.33856441    -0.20900
C855        C  0.67142717  0.43274219  0.34766742    -0.08900
C856        C  0.68904454  0.46351285  0.35372485     0.29900
F857        F  0.67226735  0.49255510  0.36205882    -0.19500
H858        H  0.73746413  0.48805406  0.35825892     0.18300
H859        H  0.67704234  0.37946223  0.33324629     0.18300
F860        F  0.74130070  0.37484612  0.32904856    -0.19400
C861        C  0.50338566  0.43482091  0.49420331    -0.20900
C862        C  0.52700313  0.45579169  0.47515957    -0.08900
C863        C  0.54612207  0.47888869  0.49756308     0.29900
C864        C  0.54475312  0.47756828  0.53822945    -0.20900
C865        C  0.52436994  0.45329848  0.55717952    -0.08900
C866        C  0.50206289  0.43343814  0.53472977     0.29900
F867        F  0.48150722  0.41001875  0.55157336    -0.19500
H868        H  0.48787619  0.41715949  0.47778254     0.18300
H869        H  0.56187737  0.49355179  0.55475778     0.18300
F870        F  0.56854065  0.50037932  0.48052021    -0.19400
C871        C  0.68557909  0.48363073  0.94111821    -0.20900
C872        C  0.66795009  0.51450354  0.94375576    -0.08900
C873        C  0.68730179  0.54471527  0.94751442     0.29900
C874        C  0.72268107  0.54366527  0.94735708    -0.20900
C875        C  0.74003756  0.51280072  0.94287922    -0.08900
C876        C  0.72070425  0.48270290  0.94021980     0.29900
F877        F  0.73583790  0.45214265  0.93540299    -0.19500
H878        H  0.67185659  0.45985565  0.93815214     0.18300
H879        H  0.73595043  0.56755547  0.94972048     0.18300
F880        F  0.67299746  0.57568120  0.95019128    -0.19400
C881        C  0.54831731  0.48864473  0.83687266    -0.20900
C882        C  0.57376396  0.47367455  0.85912751    -0.08900
C883        C  0.58842864  0.44333551  0.84615531     0.29900
C884        C  0.57864427  0.42894273  0.81089984    -0.20900
C885        C  0.55477087  0.44492468  0.78714251    -0.08900
C886        C  0.53914150  0.47469059  0.80079088     0.29900
F887        F  0.51615793  0.49105547  0.77871318    -0.19500
H888        H  0.53684104  0.51209888  0.84650264     0.18300
H889        H  0.59129075  0.40611997  0.80126016     0.18300
F890        F  0.61292194  0.42801043  0.86711323    -0.19400
C891        C  0.43733223  0.25302288  0.08554427    -0.20900
C892        C  0.46804860  0.23568639  0.09049287    -0.08900
C893        C  0.49767152  0.25559043  0.09299025     0.29900
C894        C  0.49649518  0.29106645  0.09115543    -0.20900
C895        C  0.46584663  0.30864172  0.08730846    -0.08900
C896        C  0.43605191  0.28874094  0.08420820     0.29900
F897        F  0.40521713  0.30291956  0.08154587    -0.19500
H898        H  0.41364705  0.23952348  0.08408938     0.18300
H899        H  0.51993266  0.30514963  0.09405560     0.18300
F900        F  0.52802671  0.24072498  0.09859112    -0.19400
C901        C  0.52969093  0.42005856  0.17653044    -0.20900
C902        C  0.49659703  0.40842470  0.17111735    -0.08900
C903        C  0.47416190  0.40841554  0.20266184     0.29900
C904        C  0.48520737  0.41839680  0.23959921    -0.20900
C905        C  0.51893227  0.42829368  0.24578487    -0.08900
C906        C  0.54091964  0.42983498  0.21351946     0.29900
F907        F  0.57386441  0.43850271  0.21801883    -0.19500
H908        H  0.54734146  0.41985006  0.15251490     0.18300
H909        H  0.46774703  0.41674225  0.26373406     0.18300
F910        F  0.44190612  0.39740578  0.19795999    -0.19400
C911        C  0.54171477  0.44182960  0.05400244    -0.20900
C912        C  0.51907259  0.41819515  0.03784897    -0.08900
C913        C  0.51642269  0.41581405  0.99716514     0.29900
C914        C  0.53590575  0.43709769  0.97332098    -0.20900
C915        C  0.55873011  0.46060355  0.98958045    -0.08900
C916        C  0.56157479  0.46264350  0.03023430     0.29900
F917        F  0.58267205  0.48562314  0.04708672    -0.19500
H918        H  0.54399186  0.44424152  0.08520925     0.18300
H919        H  0.53332122  0.43506571  0.94209172     0.18300
F920        F  0.49413395  0.39387875  0.98050633    -0.19400
C921        C  0.18950345  0.56092163  0.07066335    -0.20900
C922        C  0.17093537  0.53102053  0.07802090    -0.08900
C923        C  0.18927958  0.50198084  0.08936714     0.29900
C924        C  0.22477493  0.50239879  0.08971076    -0.20900
C925        C  0.24317773  0.53212689  0.08073447    -0.08900
C926        C  0.22465589  0.56169376  0.07240198     0.29900
F927        F  0.24040618  0.59214401  0.06774267    -0.19500
H928        H  0.17668623  0.58459973  0.06527614     0.18300
H929        H  0.23752922  0.47986804  0.09951168     0.18300
F930        F  0.17338547  0.47395534  0.10327906    -0.19400
C931        C  0.39164138  0.48455244  0.06850753    -0.20900
C932        C  0.36212881  0.47953753  0.09052320    -0.08900
C933        C  0.35823063  0.44916060  0.11136940     0.29900
C934        C  0.38326142  0.42424029  0.10992300    -0.20900
C935        C  0.41283088  0.42932180  0.08812623    -0.08900
C936        C  0.41679746  0.45977819  0.06729103     0.29900
F937        F  0.44471075  0.46540723  0.04528000    -0.19500
H938        H  0.39516474  0.50768862  0.05201567     0.18300
H939        H  0.38005838  0.40136587  0.12693988     0.18300
F940        F  0.33101993  0.44429307  0.13464050    -0.19400
C941        C  0.43399348  0.75390298  0.98026827    -0.20900
C942        C  0.44715146  0.73710366  0.94735256    -0.08900
C943        C  0.46394740  0.75718382  0.91952167     0.29900
C944        C  0.46300811  0.79270203  0.92166804    -0.20900
C945        C  0.44576165  0.80957033  0.95185120    -0.08900
C946        C  0.43358694  0.78942468  0.98284426     0.29900
F947        F  0.42231011  0.80316250  0.01648293    -0.19500
H948        H  0.42404833  0.74012854  0.00473823     0.18300
H949        H  0.47460701  0.80721654  0.89850035     0.18300
F950        F  0.47987382  0.74244072  0.88897105    -0.19400
C951        C  0.49211889  0.58729651  0.95332331    -0.20900
C952        C  0.49872929  0.61872924  0.93556265    -0.08900
C953        C  0.53097319  0.62473990  0.91982631     0.29900
C954        C  0.55543466  0.59917760  0.92045836    -0.20900
C955        C  0.54838469  0.56728129  0.93709482    -0.08900
C956        C  0.51663700  0.56195068  0.95440895     0.29900
F957        F  0.50946564  0.53259250  0.97333239    -0.19500
H958        H  0.46787494  0.58238557  0.96677217     0.18300
H959        H  0.57964318  0.60405235  0.90693927     0.18300
F960        F  0.53842598  0.65471301  0.90236588    -0.19400
C961        C  0.39825626  0.62496332  0.02557344    -0.20900
C962        C  0.39416439  0.62353991  0.98516461    -0.08900
C963        C  0.36949756  0.60190875  0.96924406     0.29900
C964        C  0.34953465  0.58167274  0.99360468    -0.20900
C965        C  0.35389030  0.58281125  0.03413185    -0.08900
C966        C  0.37823980  0.60503069  0.04990982     0.29900
F967        F  0.38182815  0.60870759  0.08887927    -0.19500
H968        H  0.41690973  0.64182897  0.03837116     0.18300
H969        H  0.33076598  0.56500363  0.98074810     0.18300
F970        F  0.36385840  0.60130317  0.93039000    -0.19400
C971        C  0.18625792  0.63891854  0.61743227    -0.20900
C972        C  0.16762312  0.61491776  0.63880018    -0.08900
C973        C  0.18531432  0.59004879  0.65974838     0.29900
C974        C  0.22080548  0.59081095  0.66116065    -0.20900
C975        C  0.23918464  0.61644919  0.64193325    -0.08900
C976        C  0.22142588  0.63980039  0.61897308     0.29900
F977        F  0.23799260  0.66427713  0.59867088    -0.19500
H978        H  0.17355093  0.65811200  0.60056402     0.18300
H979        H  0.23379029  0.57234670  0.67877634     0.18300
F980        F  0.16839161  0.56603829  0.68034417    -0.19400
C981        C  0.38546153  0.76326447  0.66014218    -0.20900
C982        C  0.35638795  0.74563370  0.64789792    -0.08900
C983        C  0.32859797  0.76428477  0.63461714     0.29900
C984        C  0.32923775  0.79965656  0.63581176    -0.20900
C985        C  0.35745322  0.81730654  0.65021162    -0.08900
C986        C  0.38612903  0.79882360  0.66119026     0.29900
F987        F  0.41433523  0.81491406  0.67420887    -0.19500
H988        H  0.40736803  0.74953472  0.67000930     0.18300
H989        H  0.30701803  0.81321980  0.62657227     0.18300
F990        F  0.30024178  0.74848253  0.62159171    -0.19400
C991        C  0.41255073  0.61685755  0.79169701    -0.20900
C992        C  0.38154232  0.63055008  0.77979560    -0.08900
C993        C  0.36326396  0.65048243  0.80656936     0.29900
C994        C  0.37660125  0.65817231  0.84307568    -0.20900
C995        C  0.40797198  0.64558387  0.85438501    -0.08900
C996        C  0.42546570  0.62390751  0.82894851     0.29900
F997        F  0.45584232  0.61117757  0.83927313    -0.19500
H998        H  0.42720874  0.60149224  0.77183890     0.18300
H999        H  0.36260443  0.67463862  0.86243635     0.18300
F1000       F  0.33309453  0.66408431  0.79695344    -0.19400
C1001       C  0.22515531  0.60567069  0.36422256    -0.20900
C1002       C  0.24198106  0.63718980  0.36382412    -0.08900
C1003       C  0.22281341  0.66713299  0.36276236     0.29900
C1004       C  0.18766281  0.66533010  0.36115029    -0.20900
C1005       C  0.17084518  0.63378216  0.36082178    -0.08900
C1006       C  0.18997965  0.60388183  0.36282935     0.29900
F1007       F  0.17485116  0.57284737  0.36300868    -0.19500
H1008       H  0.23925981  0.58224775  0.36520102     0.18300
H1009       H  0.17359556  0.68876704  0.35988039     0.18300
F1010       F  0.23790587  0.69820629  0.36260536    -0.19400
C1011       C  0.39312886  0.76794119  0.34817037    -0.20900
C1012       C  0.37486472  0.74869627  0.37546779    -0.08900
C1013       C  0.35888065  0.76561238  0.40643797     0.29900
C1014       C  0.35867738  0.80093618  0.40798956    -0.20900
C1015       C  0.37444461  0.82031150  0.37898313    -0.08900
C1016       C  0.39306094  0.80355722  0.34990545     0.29900
F1017       F  0.40922229  0.82139022  0.32173758    -0.19500
H1018       H  0.40593175  0.75552018  0.32428814     0.18300
H1019       H  0.34474976  0.81316542  0.43116594     0.18300
F1020       F  0.34197863  0.74817889  0.43439130    -0.19400
C1021       C  0.41190773  0.62311706  0.48654621    -0.20900
C1022       C  0.38910687  0.60221536  0.46610491    -0.08900
C1023       C  0.37004896  0.57808381  0.48699354     0.29900
C1024       C  0.37074880  0.57786153  0.52759896    -0.20900
C1025       C  0.38986155  0.60208860  0.54813207    -0.08900
C1026       C  0.41224995  0.62322014  0.52725227     0.29900
F1027       F  0.43223564  0.64611396  0.54600939    -0.19500
H1028       H  0.42709175  0.64175832  0.47127144     0.18300
H1029       H  0.35355858  0.56105950  0.54285206     0.18300
F1030       F  0.34823387  0.55686699  0.46843687    -0.19400
C1031       C  0.32527197  0.60784044  0.17465225    -0.20900
C1032       C  0.33726632  0.57556082  0.16487004    -0.08900
C1033       C  0.35985323  0.55938919  0.18998820     0.29900
C1034       C  0.36821126  0.57432823  0.22583904    -0.20900
C1035       C  0.35478721  0.60598141  0.23666140    -0.08900
C1036       C  0.33426190  0.62321106  0.20980106     0.29900
F1037       F  0.32136182  0.65423997  0.21814724    -0.19500
H1038       H  0.30824311  0.62087958  0.15529882     0.18300
H1039       H  0.38410624  0.56052852  0.24573577     0.18300
F1040       F  0.37203554  0.52821058  0.18099793    -0.19400
loop_ 
_geom_bond_atom_site_label_1 
_geom_bond_atom_site_label_2 
_geom_bond_distance 
_geom_bond_site_symmetry_2 
_ccdc_geom_bond_type 
O1            C4   1.264       .  A
O1           Cd6   2.409       .  S
C2           O11   1.264       .  A
C2            O7   1.266       .  A
C2         C1002   1.479       .  S
O3            C9   1.269       .  A
O3           Cd6   2.526       .  S
C4           O12   1.270       .  A
C4         C1012   1.480       .  S
C5           O10   1.268       .  A
C5            O8   1.264       .  A
C5         C1022   1.485       .  S
Cd6          O13   2.434       .  S
Cd6          O12   2.496       .  S
Cd6          O11   2.450       .  S
Cd6           O7   2.468       .  S
Cd6          O10   2.501       .  S
Cd6           O8   2.448       .  S
C9           O13   1.261       .  A
C9         C1035   1.489       .  S
O14          C17   1.263       .  A
O14         Cd19   2.434       .  S
C15          O24   1.266       .  A
C15          O20   1.264       .  A
C15         C982   1.479       .  S
O16          C22   1.268       .  A
O16         Cd19   2.542       .  S
C17          O25   1.271       .  A
C17         C975   1.491       .  S
C18          O23   1.262       .  A
C18          O21   1.268       .  A
C18        C1025   1.484       .  S
Cd19         O26   2.440       .  S
Cd19         O25   2.548       .  S
Cd19         O24   2.482       .  S
Cd19         O20   2.435       .  S
Cd19         O23   2.458       .  S
Cd19         O21   2.501       .  S
C22          O26   1.261       .  A
C22         C992   1.491       .  S
C27          C28   1.542       .  S
C27          C33   1.540       .  S
C27          C31   1.544       .  S
C27         C942   1.540       .  S
C28          H35   1.081       .  S
C28          C29   1.362       .  D
C29          C30   1.536       .  S
C29         C962   1.477       .  S
C30          C34   1.536       .  S
C30          C32   1.541       .  S
C30          H36   1.111       .  S
C31          H37   1.085       .  S
C31          C32   1.373       .  D
C32         C952   1.491       .  S
C33          H38   1.086       .  S
C33          C34   1.365       .  D
C34         C995   1.485       .  S
C39          C40   1.542       .  S
C39          C45   1.536       .  S
C39          C43   1.551       .  S
C39         C925   1.538       .  S
C40          H47   1.086       .  S
C40          C41   1.366       .  D
C41          C42   1.538       .  S
C41         C965   1.483       .  S
C42          C46   1.533       .  S
C42          C44   1.536       .  S
C42          H48   1.110       .  S
C43          H49   1.084       .  S
C43          C44   1.375       .  D
C44         C932   1.489       .  S
C45          H50   1.087       .  S
C45          C46   1.363       .  D
C46        C1032   1.481       .  S
C51          C52   1.539       .  S
C51          C57   1.545       .  S
C51          C55   1.555       .  S
C51         C895   1.548       .  S
C52          H59   1.087       .  S
C52          C53   1.361       .  D
C53          C54   1.532       .  S
C53         C902   1.478       .  S
C54          C58   1.537       .  S
C54          C56   1.536       .  S
C54          H60   1.111       .  S
C55          H61   1.079       .  S
C55          C56   1.374       .  D
C56         C935   1.489       .  S
C57          H62   1.086       .  S
C57          C58   1.368       .  D
C58         C912   1.486       .  S
C63          C64   1.535       .  S
C63          C69   1.541       .  S
C63          C67   1.550       .  S
C63         C872   1.540       .  S
C64          H71   1.087       .  S
C64          C65   1.361       .  D
C65          C66   1.533       .  S
C65         C882   1.479       .  S
C66          C70   1.539       .  S
C66          C68   1.543       .  S
C66          H72   1.110       .  S
C67          H73   1.078       .  S
C67          C68   1.372       .  D
C68         C955   1.494       .  S
C69          H74   1.086       .  S
C69          C70   1.368       .  D
C70         C915   1.487       .  S
O75          C78   1.266       .  A
O75         Cd80   2.426       .  S
C76          O85   1.265       .  A
C76          O81   1.266       .  A
C76         C842   1.478       .  S
O77          C83   1.267       .  A
O77         Cd80   2.531       .  S
C78          O86   1.270       .  A
C78         C855   1.484       .  S
C79          O84   1.264       .  A
C79          O82   1.263       .  A
C79         C905   1.487       .  S
Cd80         O87   2.451       .  S
Cd80         O86   2.498       .  S
Cd80         O85   2.439       .  S
Cd80         O81   2.473       .  S
Cd80         O84   2.493       .  S
Cd80         O82   2.479       .  S
C83          O87   1.261       .  A
C83         C862   1.488       .  S
O88          C91   1.266       .  A
O88         Cd93   2.429       .  S
C89          O98   1.266       .  A
C89          O94   1.264       .  A
C89         C832   1.475       .  S
O90          C96   1.262       .  A
O90         Cd93   2.466       .  S
C91          O99   1.269       .  A
C91         C822   1.481       .  S
C92          O97   1.270       .  A
C92          O95   1.262       .  A
C92         C885   1.482       .  S
Cd93        O100   2.482       .  S
Cd93         O99   2.498       .  S
Cd93         O98   2.442       .  S
Cd93         O94   2.462       .  S
Cd93         O97   2.509       .  S
Cd93         O95   2.409       .  S
C96         O100   1.266       .  A
C96         C865   1.485       .  S
O101        C104   1.265       .  A
O101       Cd106   2.407       .  S
C102        O111   1.266       .  A
C102        O107   1.265       .  A
C102        C792   1.480       .  S
O103        C109   1.266       .  A
O103       Cd106   2.491       .  S
C104        O112   1.269       .  A
C104       C1015   1.478       .  S
C105        O110   1.271       .  A
C105        O108   1.260       .  A
C105        C812   1.487       .  S
Cd106       O113   2.473       .  S
Cd106       O112   2.496       .  S
Cd106       O111   2.462       .  S
Cd106       O107   2.453       .  S
Cd106       O110   2.536       .  S
Cd106       O108   2.416       .  S
C109        O113   1.264       .  A
C109        C805   1.488       .  S
O114        C117   1.264       .  A
O114       Cd119   2.425       .  S
C115        O124   1.265       .  A
C115        O120   1.265       .  A
C115        C985   1.478       .  S
O116        C122   1.267       .  A
O116       Cd119   2.490       .  S
C117        O125   1.269       .  A
C117        C772   1.481       .  S
C118        O123   1.271       .  A
C118        O121   1.262       .  A
C118        C782   1.490       .  S
Cd119       O126   2.457       .  S
Cd119       O125   2.505       .  S
Cd119       O124   2.472       .  S
Cd119       O120   2.436       .  S
Cd119       O123   2.531       .  S
Cd119       O121   2.430       .  S
C122        O126   1.263       .  A
C122        C802   1.485       .  S
C127        C128   1.540   1_545  S
C127        C133   1.544   1_545  S
C127        C131   1.554       .  S
C127        C742   1.547       .  S
C128        H135   1.087       .  S
C128        C129   1.362       .  D
C129        C130   1.528   1_565  S
C129        C815   1.481       .  S
C130        C134   1.537   1_545  S
C130        C132   1.540       .  S
C130        H136   1.109   1_545  S
C131        H137   1.078       .  S
C131        C132   1.376       .  D
C132        C755   1.497       .  S
C133        H138   1.086       .  S
C133        C134   1.367       .  D
C134        C762   1.484       .  S
C139        C140   1.541       .  S
C139        C145   1.549       .  S
C139        C143   1.539       .  S
C139        C945   1.541       .  S
C140        H147   1.087       .  S
C140        C141   1.365       .  D
C141        C142   1.534       .  S
C141        C785   1.483       .  S
C142        C146   1.540       .  S
C142        C144   1.540       .  S
C142        H148   1.110       .  S
C143        H149   1.086       .  S
C143        C144   1.368       .  D
C144        C732   1.487       .  S
C145        H150   1.079       .  S
C145        C146   1.369       .  D
C146        C765   1.491       .  S
C151        C152   1.548       .  S
C151        C157   1.533       .  S
C151        C155   1.551   1_545  S
C151        C705   1.545       .  S
C152        H159   1.086   1_556  S
C152        C153   1.370       .  D
C153        C154   1.537       .  S
C153        C722   1.488       .  S
C154        C158   1.531       .  S
C154        C156   1.540       .  S
C154        H160   1.110       .  S
C155        H161   1.080       .  S
C155        C156   1.373   1_565  D
C156        C735   1.488   1_545  S
C157        H162   1.087       .  S
C157        C158   1.362       .  D
C158        C712   1.481       .  S
C163        C164   1.544       .  S
C163        C169   1.537       .  S
C163        C167   1.549       .  S
C163        C892   1.545       .  S
C164        H171   1.086       .  S
C164        C165   1.373       .  D
C165        C166   1.545       .  S
C165        C725   1.502       .  S
C166        C170   1.535       .  S
C166        C168   1.544       .  S
C166        H172   1.107       .  S
C167        H173   1.081       .  S
C167        C168   1.373       .  D
C168        C752   1.496       .  S
C169        H174   1.087       .  S
C169        C170   1.362       .  D
C170        C695   1.482       .  S
O175        C178   1.264       .  A
O175       Cd180   2.420       .  S
C176        O185   1.264       .  A
C176        O181   1.264       .  A
C176        C845   1.477       .  S
O177        C183   1.265       .  A
O177       Cd180   2.468       .  S
C178        O186   1.270       .  A
C178        C672   1.486       .  S
C179        O184   1.266       .  A
C179        O182   1.261       .  A
C179        C682   1.484       .  S
Cd180       O187   2.493       .  S
Cd180       O186   2.515       .  S
Cd180       O185   2.454       .  S
Cd180       O181   2.467       .  S
Cd180       O184   2.506       .  S
Cd180       O182   2.454       .  S
C183        O187   1.266       .  A
C183        C692   1.488       .  S
O188        C191   1.264       .  A
O188       Cd193   2.413       .  S
C189        O198   1.266       .  A
C189        O194   1.263       .  A
C189        C665   1.474       .  S
O190        C196   1.269       .  A
O190       Cd193   2.532       .  S
C191        O199   1.270       .  A
C191        C825   1.483       .  S
C192        O197   1.263       .  A
C192        O195   1.267       .  A
C192        C685   1.480       .  S
Cd193       O200   2.402       .  S
Cd193       O199   2.509       .  S
Cd193       O198   2.481       .  S
Cd193       O194   2.417       .  S
Cd193       O197   2.442       .  S
Cd193       O195   2.479       .  S
C196        O200   1.261       .  A
C196        C715   1.483       .  S
O201        C204   1.265       .  A
O201       Cd206   2.472       .  S
C202        O211   1.270       .  A
C202        O207   1.266       .  A
C202        C632   1.473       .  S
O203        C209   1.266       .  A
O203       Cd206   2.490       .  S
C204        O212   1.263       .  A
C204       C1005   1.480       .  S
C205        O210   1.263       .  A
C205        O208   1.265       .  A
C205        C642   1.484       .  S
Cd206       O213   2.457       .  S
Cd206       O212   2.462       .  S
Cd206       O211   2.483       .  S
Cd206       O207   2.398       .  S
Cd206       O210   2.467       .  S
Cd206       O208   2.493       .  S
C209        O213   1.262       .  A
C209        C652   1.483       .  S
O214        C217   1.265       .  A
O214       Cd219   2.446       .  S
C215        O224   1.262       .  A
C215        O220   1.266       .  A
C215        C612   1.479       .  S
O216        C222   1.268       .  A
O216       Cd219   2.490       .  S
C217        O225   1.270       .  A
C217        C972   1.491       .  S
C218        O223   1.266       .  A
C218        O221   1.261       .  A
C218        C622   1.485       .  S
Cd219       O226   2.451       .  S
Cd219       O225   2.514       .  S
Cd219       O224   2.423       .  S
Cd219       O220   2.491       .  S
Cd219       O223   2.516       .  S
Cd219       O221   2.454       .  S
C222        O226   1.263       .  A
C222        C645   1.482       .  S
C227        C228   1.538       .  S
C227        C233   1.539       .  S
C227        C231   1.547       .  S
C227        C582   1.537       .  S
C228        H235   1.087       .  S
C228        C229   1.361       .  D
C229        C230   1.533       .  S
C229        C625   1.476   1_655  S
C230        C234   1.540       .  S
C230        C232   1.544       .  S
C230        H236   1.109       .  S
C231        H237   1.080       .  S
C231        C232   1.370       .  D
C232        C592   1.490       .  S
C233        H238   1.086   1_655  S
C233        C234   1.367       .  D
C234        C602   1.487   1_655  S
C239        C240   1.535       .  S
C239        C245   1.551       .  S
C239        C243   1.549       .  S
C239        C922   1.540       .  S
C240        H247   1.087       .  S
C240        C241   1.360       .  D
C241        C242   1.530       .  S
C241        C655   1.473       .  S
C242        C246   1.536       .  S
C242        C244   1.536       .  S
C242        H248   1.111       .  S
C243        H249   1.083       .  S
C243        C244   1.370       .  D
C244        C572   1.482       .  S
C245        H250   1.085       .  S
C245        C246   1.370       .  D
C246        C605   1.490       .  S
C251        C252   1.550       .  S
C251        C257   1.543       .  S
C251        C255   1.541       .  S
C251        C545   1.546       .  S
C252        H259   1.078       .  S
C252        C253   1.368       .  D
C253        C254   1.540       .  S
C253        C565   1.496       .  S
C254        C258   1.536       .  S
C254        C256   1.538       .  S
C254        H260   1.110       .  S
C255        H261   1.086       .  S
C255        C256   1.368       .  D
C256        C575   1.485   1_655  S
C257        H262   1.086       .  S
C257        C258   1.369       .  D
C258        C552   1.485       .  S
C263        C264   1.538       .  S
C263        C269   1.537       .  S
C263        C267   1.553       .  S
C263        C875   1.534       .  S
C264        H271   1.086       .  S
C264        C265   1.365       .  D
C265        C266   1.540       .  S
C265        C562   1.488       .  S
C266        C270   1.529       .  S
C266        C268   1.536       .  S
C266        H272   1.110       .  S
C267        H273   1.081       .  S
C267        C268   1.372       .  D
C268        C595   1.486       .  S
C269        H274   1.087       .  S
C269        C270   1.363       .  D
C270        C532   1.477       .  S
O275        C278   1.264       .  A
O275       Cd280   2.440       .  S
C276        O285   1.269       .  A
C276        O281   1.263       .  A
C276        C852   1.485       .  S
O277        C283   1.267       .  A
O277       Cd280   2.506       .  S
C278        O286   1.267       .  A
C278        C512   1.478       .  S
C279        O284   1.264       .  A
C279        O282   1.265       .  A
C279        C555   1.482       .  S
Cd280       O287   2.449       .  S
Cd280       O286   2.463       .  S
Cd280       O285   2.511       .  S
Cd280       O281   2.430       .  S
Cd280       O284   2.450       .  S
Cd280       O282   2.492       .  S
C283        O287   1.261       .  A
C283        C522   1.483       .  S
O288        C291   1.264       .  A
O288       Cd293   2.413       .  S
C289        O298   1.264       .  A
C289        O294   1.265       .  A
C289        C835   1.477       .  S
O290        C296   1.265       .  A
O290       Cd293   2.463       .  S
C291        O299   1.270       .  A
C291        C502   1.478       .  S
C292        O297   1.261       .  A
C292        O295   1.266       .  A
C292        C525   1.483       .  S
Cd293       O300   2.469       .  S
Cd293       O299   2.494       .  S
Cd293       O298   2.435       .  S
Cd293       O294   2.475       .  S
Cd293       O297   2.447       .  S
Cd293       O295   2.495       .  S
C296        O300   1.264       .  A
C296        C535   1.479       .  S
O301        C304   1.264       .  A
O301       Cd306   2.461       .  S
C302        O311   1.269       .  A
C302        O307   1.265       .  A
C302        C675   1.485       .  S
O303        C309   1.268       .  A
O303       Cd306   2.502       .  S
C304        O312   1.264       .  A
C304        C515   1.479       .  S
C305        O310   1.263       .  A
C305        O308   1.266       .  A
C305        C482   1.489       .  S
Cd306       O313   2.477       .  S
Cd306       O312   2.471       .  S
Cd306       O311   2.508       .  S
Cd306       O307   2.441       .  S
Cd306       O310   2.475       .  S
Cd306       O308   2.510       .  S
C309        O313   1.265       .  A
C309        C492   1.490       .  S
O314        C317   1.263       .  A
O314       Cd319   2.431       .  S
C315        O324   1.266       .  A
C315        O320   1.263       .  A
C315        C662   1.474       .  S
O316        C322   1.267       .  A
O316       Cd319   2.501       .  S
C317        O325   1.270       .  A
C317        C505   1.482       .  S
C318        O323   1.268       .  A
C318        O321   1.263       .  A
C318        C472   1.486       .  S
Cd319       O326   2.452       .  S
Cd319       O325   2.495       .  S
Cd319       O324   2.468       .  S
Cd319       O320   2.416       .  S
Cd319       O323   2.501       .  S
Cd319       O321   2.457       .  S
C322        O326   1.262       .  A
C322        C485   1.486       .  S
C327        C328   1.543   1_545  S
C327        C333   1.533   1_545  S
C327        C331   1.548       .  S
C327        C745   1.541       .  S
C328        H335   1.086       .  S
C328        C329   1.369       .  D
C329        C330   1.542   1_565  S
C329        C462   1.489       .  S
C330        C334   1.539   1_545  S
C330        C332   1.545       .  S
C330        H336   1.110   1_545  S
C331        H337   1.082       .  S
C331        C332   1.374       .  D
C332        C452   1.493       .  S
C333        H338   1.087       .  S
C333        C334   1.362       .  D
C334        C445   1.490       .  S
C339        C340   1.543       .  S
C339        C345   1.536       .  S
C339        C343   1.550       .  S
C339        C585   1.543       .  S
C340        H347   1.086   1_655  S
C340        C341   1.369       .  D
C341        C342   1.541       .  S
C341        C465   1.494   1_655  S
C342        C346   1.537       .  S
C342        C344   1.537       .  S
C342        H348   1.110       .  S
C343        H349   1.078       .  S
C343        C344   1.369       .  D
C344        C432   1.482       .  S
C345        H350   1.086       .  S
C345        C346   1.366       .  D
C346        C425   1.489   1_655  S
C351        C352   1.539       .  S
C351        C357   1.541       .  S
C351        C355   1.551       .  S
C351        C702   1.541       .  S
C352        H359   1.086       .  S
C352        C353   1.363       .  D
C353        C354   1.531       .  S
C353        C475   1.477       .  S
C354        C358   1.538       .  S
C354        C356   1.536       .  S
C354        H360   1.111       .  S
C355        H361   1.082   1_545  S
C355        C356   1.370       .  D
C356        C435   1.484   1_545  S
C357        H362   1.086       .  S
C357        C358   1.368       .  D
C358        C412   1.485       .  S
C363        C364   1.543       .  S
C363        C369   1.549       .  S
C363        C367   1.546       .  S
C363        C542   1.545       .  S
C364        H371   1.086       .  S
C364        C365   1.363       .  D
C365        C366   1.533       .  S
C365        C495   1.480       .  S
C366        C370   1.533       .  S
C366        C368   1.537       .  S
C366        H372   1.111       .  S
C367        H373   1.086       .  S
C367        C368   1.374       .  D
C368        C455   1.488       .  S
C369        H374   1.081       .  S
C369        C370   1.365       .  D
C370        C415   1.483       .  S
O375        C378   1.265       .  A
O375       Cd380   2.465       .  S
C376        O385   1.268       .  A
C376        O381   1.265       .  A
C376        C635   1.479       .  S
O377        C383   1.267       .  A
O377       Cd380   2.510       .  S
C378        O386   1.265       .  A
C378        C795   1.481       .  S
C379        O384   1.270       .  A
C379        O382   1.261       .  A
C379        C442   1.488       .  S
Cd380       O387   2.452       .  S
Cd380       O386   2.463       .  S
Cd380       O385   2.493       .  S
Cd380       O381   2.429       .  S
Cd380       O384   2.537       .  S
Cd380       O382   2.418       .  S
C383        O387   1.262       .  A
C383        C405   1.486       .  S
O388        C391   1.264       .  A
O388       Cd393   2.469       .  S
C389        O398   1.269       .  A
C389        O394   1.266       .  A
C389        C775   1.484       .  S
O390        C396   1.263       .  A
O390       Cd393   2.464       .  S
C391        O399   1.265       .  A
C391        C615   1.477       .  S
C392        O397   1.271       .  A
C392        O395   1.260       .  A
C392        C422   1.486       .  S
Cd393       O400   2.487       .  S
Cd393       O399   2.449       .  S
Cd393       O398   2.497       .  S
Cd393       O394   2.432       .  S
Cd393       O397   2.547       .  S
Cd393       O395   2.383       .  S
C396        O400   1.267       .  A
C396        C402   1.486       .  S
C401        C402   1.405       .  A
C401        C406   1.399       .  A
C401        H408   1.083   1_565  S
C402        C403   1.411   1_455  A
C403        C404   1.402       .  A
C403        F410   1.358       .  S
C404        C405   1.405   1_655  A
C404        H409   1.083       .  S
C405        C406   1.410       .  A
C406        F407   1.357   1_565  S
C411        C412   1.405   1_554  A
C411        C416   1.399       .  A
C411        H418   1.083       .  S
C412        C413   1.407       .  A
C413        C414   1.397   1_556  A
C413        F420   1.357       .  S
C414        C415   1.404       .  A
C414        H419   1.083   1_554  S
C415        C416   1.405       .  A
C416        F417   1.355       .  S
C421        C422   1.406       .  A
C421        C426   1.390       .  A
C421        H428   1.083       .  S
C422        C423   1.409       .  A
C423        C424   1.409   1_455  A
C423        F430   1.357   1_455  S
C424        C425   1.409   1_655  A
C424        H429   1.083       .  S
C425        C426   1.404       .  A
C426        F427   1.358       .  S
C431        C432   1.405       .  A
C431        C436   1.403       .  A
C431        H438   1.083       .  S
C432        C433   1.404       .  A
C433        C434   1.397       .  A
C433        F440   1.357       .  S
C434        C435   1.403       .  A
C434        H439   1.083   1_565  S
C435        C436   1.407       .  A
C436        F437   1.357       .  S
C441        C442   1.406       .  A
C441        C446   1.393       .  A
C441        H448   1.083       .  S
C442        C443   1.410       .  A
C443        C444   1.409       .  A
C443        F450   1.357       .  S
C444        C445   1.407       .  A
C444        H449   1.083   1_565  S
C445        C446   1.406       .  A
C446        F447   1.358       .  S
C451        C452   1.407       .  A
C451        C456   1.403       .  A
C451        H458   1.083       .  S
C452        C453   1.409       .  A
C453        C454   1.400   1_455  A
C453        F460   1.357       .  S
C454        C455   1.405       .  A
C454        H459   1.084       .  S
C455        C456   1.405   1_655  A
C456        F457   1.357       .  S
C461        C462   1.402       .  A
C461        C466   1.401       .  A
C461        H468   1.083       .  S
C462        C463   1.408   1_554  A
C463        C464   1.403       .  A
C463        F470   1.357       .  S
C464        C465   1.406       .  A
C464        H469   1.083       .  S
C465        C466   1.410   1_556  A
C466        F467   1.357   1_455  S
C471        C472   1.408       .  A
C471        C476   1.398       .  A
C471        H478   1.083       .  S
C472        C473   1.411       .  A
C473        C474   1.403       .  A
C473        F480   1.357       .  S
C474        C475   1.402       .  A
C474        H479   1.084       .  S
C475        C476   1.402       .  A
C476        F477   1.358       .  S
C481        C482   1.406       .  A
C481        C486   1.401       .  A
C481        H488   1.083       .  S
C482        C483   1.411       .  A
C483        C484   1.401       .  A
C483        F490   1.357       .  S
C484        C485   1.405       .  A
C484        H489   1.083       .  S
C485        C486   1.410       .  A
C486        F487   1.358       .  S
C491        C492   1.409       .  A
C491        C496   1.403       .  A
C491        H498   1.083       .  S
C492        C493   1.412       .  A
C493        C494   1.401       .  A
C493        F500   1.357       .  S
C494        C495   1.399       .  A
C494        H499   1.082       .  S
C495        C496   1.404       .  A
C496        F497   1.358       .  S
C501        C502   1.404       .  A
C501        C506   1.394       .  A
C501        H508   1.084       .  S
C502        C503   1.406       .  A
C503        C504   1.402       .  A
C503        F510   1.357       .  S
C504        C505   1.406       .  A
C504        H509   1.083       .  S
C505        C506   1.410       .  A
C506        F507   1.358       .  S
C511        C512   1.404       .  A
C511        C516   1.397       .  A
C511        H518   1.083       .  S
C512        C513   1.408       .  A
C513        C514   1.396       .  A
C513        F520   1.358       .  S
C514        C515   1.405       .  A
C514        H519   1.083       .  S
C515        C516   1.408       .  A
C516        F517   1.357       .  S
C521        C522   1.404       .  A
C521        C526   1.400       .  A
C521        H528   1.083       .  S
C522        C523   1.410       .  A
C523        C524   1.400       .  A
C523        F530   1.357       .  S
C524        C525   1.404       .  A
C524        H529   1.083       .  S
C525        C526   1.410       .  A
C526        F527   1.358       .  S
C531        C532   1.402       .  A
C531        C536   1.395       .  A
C531        H538   1.084       .  S
C532        C533   1.402       .  A
C533        C534   1.402       .  A
C533        F540   1.357       .  S
C534        C535   1.408       .  A
C534        H539   1.083       .  S
C535        C536   1.408       .  A
C536        F537   1.358       .  S
C541        C542   1.411       .  A
C541        C546   1.402       .  A
C541        H548   1.077       .  S
C542        C543   1.411       .  A
C543        C544   1.404       .  A
C543        F550   1.357       .  S
C544        C545   1.411       .  A
C544        H549   1.083       .  S
C545        C546   1.416       .  A
C546        F547   1.354       .  S
C551        C552   1.405       .  A
C551        C556   1.403       .  A
C551        H558   1.083       .  S
C552        C553   1.405       .  A
C553        C554   1.396       .  A
C553        F560   1.358       .  S
C554        C555   1.406       .  A
C554        H559   1.083       .  S
C555        C556   1.408       .  A
C556        F557   1.357       .  S
C561        C562   1.406   1_554  A
C561        C566   1.403       .  A
C561        H568   1.083   1_554  S
C562        C563   1.404   1_556  A
C563        C564   1.397       .  A
C563        F570   1.357   1_554  S
C564        C565   1.404       .  A
C564        H569   1.070       .  S
C565        C566   1.411       .  A
C566        F567   1.357       .  S
C571        C572   1.405       .  A
C571        C576   1.404       .  A
C571        H578   1.082       .  S
C572        C573   1.404       .  A
C573        C574   1.398   1_455  A
C573        F580   1.358       .  S
C574        C575   1.402   1_655  A
C574        H579   1.072       .  S
C575        C576   1.406       .  A
C576        F577   1.357       .  S
C581        C582   1.410       .  A
C581        C586   1.404       .  A
C581        H588   1.076       .  S
C582        C583   1.409       .  A
C583        C584   1.397       .  A
C583        F590   1.358   1_655  S
C584        C585   1.410       .  A
C584        H589   1.083   1_655  S
C585        C586   1.416       .  A
C586        F587   1.352       .  S
C591        C592   1.409       .  A
C591        C596   1.401       .  A
C591        H598   1.083       .  S
C592        C593   1.406       .  A
C593        C594   1.394       .  A
C593        F600   1.355       .  S
C594        C595   1.405       .  A
C594        H599   1.083       .  S
C595        C596   1.406       .  A
C596        F597   1.357       .  S
C601        C602   1.404       .  A
C601        C606   1.403       .  A
C601        H608   1.083       .  S
C602        C603   1.406   1_556  A
C603        C604   1.399       .  A
C603        F610   1.357   1_455  S
C604        C605   1.405       .  A
C604        H609   1.083       .  S
C605        C606   1.409   1_554  A
C606        F607   1.357       .  S
C611        C612   1.406       .  A
C611        C616   1.401       .  A
C611        H618   1.083       .  S
C612        C613   1.408       .  A
C613        C614   1.392       .  A
C613        F620   1.357       .  S
C614        C615   1.402       .  A
C614        H619   1.083       .  S
C615        C616   1.408       .  A
C616        F617   1.358   1_455  S
C621        C622   1.409       .  A
C621        C626   1.399       .  A
C621        H628   1.083       .  S
C622        C623   1.409   1_455  A
C623        C624   1.402       .  A
C623        F630   1.357       .  S
C624        C625   1.402   1_655  A
C624        H629   1.083       .  S
C625        C626   1.401       .  A
C626        F627   1.358       .  S
C631        C632   1.404       .  A
C631        C636   1.402       .  A
C631        H638   1.083       .  S
C632        C633   1.405       .  A
C633        C634   1.393       .  A
C633        F640   1.358       .  S
C634        C635   1.404       .  A
C634        H639   1.083       .  S
C635        C636   1.410       .  A
C636        F637   1.357       .  S
C641        C642   1.406   1_655  A
C641        C646   1.400       .  A
C641        H648   1.083       .  S
C642        C643   1.409       .  A
C643        C644   1.399       .  A
C643        F650   1.357       .  S
C644        C645   1.404       .  A
C644        H649   1.083       .  S
C645        C646   1.410   1_455  A
C646        F647   1.358       .  S
C651        C652   1.406       .  A
C651        C656   1.398       .  A
C651        H658   1.083       .  S
C652        C653   1.412       .  A
C653        C654   1.400       .  A
C653        F660   1.358       .  S
C654        C655   1.399       .  A
C654        H659   1.083       .  S
C655        C656   1.402       .  A
C656        F657   1.357       .  S
C661        C662   1.405       .  A
C661        C666   1.399       .  A
C661        H668   1.083       .  S
C662        C663   1.407       .  A
C663        C664   1.391       .  A
C663        F670   1.358       .  S
C664        C665   1.403       .  A
C664        H669   1.083       .  S
C665        C666   1.407       .  A
C666        F667   1.357       .  S
C671        C672   1.405       .  A
C671        C676   1.394       .  A
C671        H678   1.083       .  S
C672        C673   1.409       .  A
C673        C674   1.406       .  A
C673        F680   1.357       .  S
C674        C675   1.408       .  A
C674        H679   1.083       .  S
C675        C676   1.408       .  A
C676        F677   1.358       .  S
C681        C682   1.407       .  A
C681        C686   1.398       .  A
C681        H688   1.083       .  S
C682        C683   1.407       .  A
C683        C684   1.400       .  A
C683        F690   1.357       .  S
C684        C685   1.406       .  A
C684        H689   1.083       .  S
C685        C686   1.407       .  A
C686        F687   1.358       .  S
C691        C692   1.408       .  A
C691        C696   1.399       .  A
C691        H698   1.083       .  S
C692        C693   1.411       .  A
C693        C694   1.403       .  A
C693        F700   1.357       .  S
C694        C695   1.401       .  A
C694        H699   1.081       .  S
C695        C696   1.404       .  A
C696        F697   1.358       .  S
C701        C702   1.410       .  A
C701        C706   1.406   1_545  A
C701        H708   1.077   1_545  S
C702        C703   1.411       .  A
C703        C704   1.399       .  A
C703        F710   1.358       .  S
C704        C705   1.411       .  A
C704        H709   1.083       .  S
C705        C706   1.417   1_545  A
C706        F707   1.352       .  S
C711        C712   1.407       .  A
C711        C716   1.407       .  A
C711        H718   1.083       .  S
C712        C713   1.402       .  A
C713        C714   1.390       .  A
C713        F720   1.358       .  S
C714        C715   1.405       .  A
C714        H719   1.083       .  S
C715        C716   1.410       .  A
C716        F717   1.357       .  S
C721        C722   1.403   1_554  A
C721        C726   1.404       .  A
C721        H728   1.083       .  S
C722        C723   1.404       .  A
C723        C724   1.403   1_556  A
C723        F730   1.357       .  S
C724        C725   1.410       .  A
C724        H729   1.083   1_554  S
C725        C726   1.412       .  A
C726        F727   1.354       .  S
C731        C732   1.403       .  A
C731        C736   1.397       .  A
C731        H738   1.083       .  S
C732        C733   1.409       .  A
C733        C734   1.403       .  A
C733        F740   1.357       .  S
C734        C735   1.406       .  A
C734        H739   1.083       .  S
C735        C736   1.407       .  A
C736        F737   1.357   1_565  S
C741        C742   1.409   1_565  A
C741        C746   1.397       .  A
C741        H748   1.083       .  S
C742        C743   1.419       .  A
C743        C744   1.410       .  A
C743        F750   1.352       .  S
C744        C745   1.411       .  A
C744        H749   1.078       .  S
C745        C746   1.410   1_545  A
C746        F747   1.358       .  S
C751        C752   1.409       .  A
C751        C756   1.403       .  A
C751        H758   1.083       .  S
C752        C753   1.407       .  A
C753        C754   1.398       .  A
C753        F760   1.357       .  S
C754        C755   1.406       .  A
C754        H759   1.082       .  S
C755        C756   1.410       .  A
C756        F757   1.357       .  S
C761        C762   1.404       .  A
C761        C766   1.401   1_554  A
C761        H768   1.083   1_554  S
C762        C763   1.405       .  A
C763        C764   1.400       .  A
C763        F770   1.358       .  S
C764        C765   1.407   1_554  A
C764        H769   1.083       .  S
C765        C766   1.409       .  A
C766        F767   1.357       .  S
C771        C772   1.406       .  A
C771        C776   1.405       .  A
C771        H778   1.083       .  S
C772        C773   1.407       .  A
C773        C774   1.394       .  A
C773        F780   1.358       .  S
C774        C775   1.404       .  A
C774        H779   1.083       .  S
C775        C776   1.410       .  A
C776        F777   1.357       .  S
C781        C782   1.408       .  A
C781        C786   1.406       .  A
C781        H788   1.083       .  S
C782        C783   1.412       .  A
C783        C784   1.396       .  A
C783        F790   1.358       .  S
C784        C785   1.400       .  A
C784        H789   1.084       .  S
C785        C786   1.405       .  A
C786        F787   1.357       .  S
C791        C792   1.405       .  A
C791        C796   1.398       .  A
C791        H798   1.083       .  S
C792        C793   1.407       .  A
C793        C794   1.398       .  A
C793        F800   1.357       .  S
C794        C795   1.405       .  A
C794        H799   1.083       .  S
C795        C796   1.408       .  A
C796        F797   1.357       .  S
C801        C802   1.406       .  A
C801        C806   1.401       .  A
C801        H808   1.083       .  S
C802        C803   1.408       .  A
C803        C804   1.401       .  A
C803        F810   1.358   1_565  S
C804        C805   1.407       .  A
C804        H809   1.083   1_565  S
C805        C806   1.409       .  A
C806        F807   1.357       .  S
C811        C812   1.409       .  A
C811        C816   1.395       .  A
C811        H818   1.083       .  S
C812        C813   1.409       .  A
C813        C814   1.405       .  A
C813        F820   1.357   1_565  S
C814        C815   1.405       .  A
C814        H819   1.083   1_565  S
C815        C816   1.401       .  A
C816        F817   1.358       .  S
C821        C822   1.407       .  A
C821        C826   1.405       .  A
C821        H828   1.083       .  S
C822        C823   1.406       .  A
C823        C824   1.393       .  A
C823        F830   1.358       .  S
C824        C825   1.405       .  A
C824        H829   1.083       .  S
C825        C826   1.409       .  A
C826        F827   1.357       .  S
C831        C832   1.406       .  A
C831        C836   1.399       .  A
C831        H838   1.083       .  S
C832        C833   1.405       .  A
C833        C834   1.393       .  A
C833        F840   1.357       .  S
C834        C835   1.404       .  A
C834        H839   1.083       .  S
C835        C836   1.408       .  A
C836        F837   1.358       .  S
C841        C842   1.404       .  A
C841        C846   1.394       .  A
C841        H848   1.083       .  S
C842        C843   1.408       .  A
C843        C844   1.399       .  A
C843        F850   1.358       .  S
C844        C845   1.406       .  A
C844        H849   1.083       .  S
C845        C846   1.406       .  A
C846        F847   1.357       .  S
C851        C852   1.407       .  A
C851        C856   1.405       .  A
C851        H858   1.083       .  S
C852        C853   1.409       .  A
C853        C854   1.394       .  A
C853        F860   1.358       .  S
C854        C855   1.404       .  A
C854        H859   1.083       .  S
C855        C856   1.409       .  A
C856        F857   1.357       .  S
C861        C862   1.407       .  A
C861        C866   1.398       .  A
C861        H868   1.083       .  S
C862        C863   1.408       .  A
C863        C864   1.403       .  A
C863        F870   1.357       .  S
C864        C865   1.409       .  A
C864        H869   1.083       .  S
C865        C866   1.407       .  A
C866        F867   1.357       .  S
C871        C872   1.410       .  A
C871        C876   1.395       .  A
C871        H878   1.084       .  S
C872        C873   1.416       .  A
C873        C874   1.405       .  A
C873        F880   1.352       .  S
C874        C875   1.409       .  A
C874        H879   1.077       .  S
C875        C876   1.409       .  A
C876        F877   1.358       .  S
C881        C882   1.404       .  A
C881        C886   1.404       .  A
C881        H888   1.083       .  S
C882        C883   1.404       .  A
C883        C884   1.392       .  A
C883        F890   1.358       .  S
C884        C885   1.407       .  A
C884        H889   1.083       .  S
C885        C886   1.409       .  A
C886        F887   1.357       .  S
C891        C892   1.412       .  A
C891        C896   1.408       .  A
C891        H898   1.077       .  S
C892        C893   1.410       .  A
C893        C894   1.399       .  A
C893        F900   1.358       .  S
C894        C895   1.411       .  A
C894        H899   1.083       .  S
C895        C896   1.417       .  A
C896        F897   1.352       .  S
C901        C902   1.400       .  A
C901        C906   1.402       .  A
C901        H908   1.083       .  S
C902        C903   1.403       .  A
C903        C904   1.400       .  A
C903        F910   1.358       .  S
C904        C905   1.407       .  A
C904        H909   1.083       .  S
C905        C906   1.413       .  A
C906        F907   1.357       .  S
C911        C912   1.402       .  A
C911        C916   1.398       .  A
C911        H918   1.083       .  S
C912        C913   1.408   1_554  A
C913        C914   1.403       .  A
C913        F920   1.357       .  S
C914        C915   1.405       .  A
C914        H919   1.083       .  S
C915        C916   1.407   1_556  A
C916        F917   1.357       .  S
C921        C922   1.407       .  A
C921        C926   1.396       .  A
C921        H928   1.082       .  S
C922        C923   1.417       .  A
C923        C924   1.408       .  A
C923        F930   1.355       .  S
C924        C925   1.410       .  A
C924        H929   1.080       .  S
C925        C926   1.412       .  A
C926        F927   1.357       .  S
C931        C932   1.407       .  A
C931        C936   1.401       .  A
C931        H938   1.083       .  S
C932        C933   1.405       .  A
C933        C934   1.402       .  A
C933        F940   1.356       .  S
C934        C935   1.405       .  A
C934        H939   1.083       .  S
C935        C936   1.408       .  A
C936        F937   1.358       .  S
C941        C942   1.412       .  A
C941        C946   1.401       .  A
C941        H948   1.077   1_556  S
C942        C943   1.408       .  A
C943        C944   1.401       .  A
C943        F950   1.357       .  S
C944        C945   1.410       .  A
C944        H949   1.083       .  S
C945        C946   1.415       .  A
C946        F947   1.354   1_556  S
C951        C952   1.405       .  A
C951        C956   1.400       .  A
C951        H958   1.083       .  S
C952        C953   1.407       .  A
C953        C954   1.404       .  A
C953        F960   1.357       .  S
C954        C955   1.408       .  A
C954        H959   1.083       .  S
C955        C956   1.407       .  A
C956        F957   1.357       .  S
C961        C962   1.402   1_554  A
C961        C966   1.394       .  A
C961        H968   1.083       .  S
C962        C963   1.403       .  A
C963        C964   1.400       .  A
C963        F970   1.357       .  S
C964        C965   1.407   1_556  A
C964        H969   1.083       .  S
C965        C966   1.407       .  A
C966        F967   1.357       .  S
C971        C972   1.405       .  A
C971        C976   1.397       .  A
C971        H978   1.083       .  S
C972        C973   1.411       .  A
C973        C974   1.409       .  A
C973        F980   1.357       .  S
C974        C975   1.408       .  A
C974        H979   1.083       .  S
C975        C976   1.409       .  A
C976        F977   1.358       .  S
C981        C982   1.406       .  A
C981        C986   1.400       .  A
C981        H988   1.083       .  S
C982        C983   1.408       .  A
C983        C984   1.393       .  A
C983        F990   1.357       .  S
C984        C985   1.403       .  A
C984        H989   1.083       .  S
C985        C986   1.408       .  A
C986        F987   1.358       .  S
C991        C992   1.409       .  A
C991        C996   1.408       .  A
C991        H998   1.083       .  S
C992        C993   1.412       .  A
C993        C994   1.396       .  A
C993       F1000   1.357       .  S
C994        C995   1.400       .  A
C994        H999   1.084       .  S
C995        C996   1.407       .  A
C996        F997   1.357       .  S
C1001      C1002   1.405       .  A
C1001      C1006   1.398       .  A
C1001      H1008   1.083       .  S
C1002      C1003   1.409       .  A
C1003      C1004   1.397       .  A
C1003      F1010   1.358       .  S
C1004      C1005   1.405       .  A
C1004      H1009   1.083       .  S
C1005      C1006   1.408       .  A
C1006      F1007   1.357       .  S
C1011      C1012   1.406       .  A
C1011      C1016   1.403       .  A
C1011      H1018   1.083       .  S
C1012      C1013   1.408       .  A
C1013      C1014   1.392       .  A
C1013      F1020   1.358       .  S
C1014      C1015   1.403       .  A
C1014      H1019   1.083       .  S
C1015      C1016   1.408       .  A
C1016      F1017   1.357       .  S
C1021      C1022   1.406       .  A
C1021      C1026   1.402       .  A
C1021      H1028   1.083       .  S
C1022      C1023   1.409       .  A
C1023      C1024   1.399       .  A
C1023      F1030   1.357       .  S
C1024      C1025   1.404       .  A
C1024      H1029   1.083       .  S
C1025      C1026   1.410       .  A
C1026      F1027   1.358       .  S
C1031      C1032   1.400       .  A
C1031      C1036   1.397       .  A
C1031      H1038   1.084       .  S
C1032      C1033   1.405       .  A
C1033      C1034   1.405       .  A
C1033      F1040   1.357       .  S
C1034      C1035   1.408       .  A
C1034      H1039   1.083       .  S
C1035      C1036   1.413       .  A
C1036      F1037   1.358       .  S
