geometry optimzed in LAMMPS
_audit_creation_date              2020-11-30 
_audit_creation_method            'lammps2cif' 
_symmetry_space_group_name_H-M    'P1' 
_symmetry_Int_Tables_number       1 
_symmetry_cell_setting            triclinic 
loop_ 
_symmetry_equiv_pos_as_xyz 
  x,y,z 
_cell_length_a                    42.0272152 
_cell_length_b                    41.92484256212991 
_cell_length_c                    41.932020894071385 
_cell_angle_alpha                 90.008827746183 
_cell_angle_beta                  89.94591498656037 
_cell_angle_gamma                 90.05347830573909 
loop_ 
_atom_site_label 
_atom_site_type_symbol 
_atom_site_fract_x 
_atom_site_fract_y 
_atom_site_fract_z 
_atom_site_charge 
Fe1        Fe  0.81810284  0.87149929  0.62493355     1.65800
Fe2        Fe  0.87626605  0.87281955  0.68199136     1.73200
Fe3        Fe  0.87694365  0.81512912  0.62436629     1.54400
O4          O  0.83424153  0.79171035  0.61734838    -0.80500
O5          O  0.92141748  0.87322610  0.66289759    -0.78800
O6          O  0.79586774  0.82784084  0.62133489    -0.83000
O7          O  0.83537166  0.86827593  0.57877543    -0.77900
O8          O  0.87993721  0.79172051  0.66719694    -0.79700
O9          O  0.87065742  0.91875798  0.66530981    -0.82400
C10         C  0.85783061  0.85355599  0.56479563     0.98300
C11         C  0.80504335  0.79926254  0.61784275     1.05800
O12         O  0.85711955  0.85320599  0.64371731    -1.11400
O13         O  0.83349752  0.87460113  0.70591971    -0.73800
O14         O  0.79586966  0.87673722  0.66879724    -0.77300
O15         O  0.87593983  0.83428319  0.57934349    -0.78000
C16         C  0.80451332  0.87667779  0.69784048     0.97300
O17         O  0.83508724  0.91762995  0.62626046    -0.76000
O18         O  0.88410207  0.82950575  0.70403344    -0.81200
C19         C  0.93625326  0.85511198  0.64380323     0.99900
C20         C  0.88339843  0.80035937  0.69592826     1.05800
O21         O  0.92251621  0.83266978  0.62892679    -0.76800
C22         C  0.85447685  0.93264376  0.64389311     1.04100
Fe23       Fe  0.63219228  0.81701598  0.86725276     1.65800
Fe24       Fe  0.69101652  0.87373037  0.86850595     1.73200
Fe25       Fe  0.63452807  0.87477329  0.80969225     1.54400
O26         O  0.63101611  0.83182736  0.78631934    -0.80500
O27         O  0.67378283  0.92000540  0.86580221    -0.78800
O28         O  0.62679584  0.79487941  0.82395264    -0.83000
O29         O  0.58682627  0.83609520  0.86500985    -0.77900
O30         O  0.67824133  0.87994704  0.78781334    -0.79700
O31         O  0.67256130  0.87112229  0.91406188    -0.82400
C32         C  0.57310245  0.85615342  0.84697953     0.98300
C33         C  0.62798332  0.80302265  0.79491268     1.05800
O34         O  0.65250158  0.85527319  0.84859396    -1.11400
O35         O  0.71309619  0.82980131  0.87314624    -0.73800
O36         O  0.67499279  0.79298453  0.87105637    -0.77300
O37         O  0.58816471  0.87174185  0.82584987    -0.78000
C38         C  0.70411853  0.80086045  0.87287592     0.97300
O39         O  0.63523489  0.83366599  0.91325632    -0.76000
O40         O  0.71495661  0.87822296  0.82570725    -0.81200
C41         C  0.65292633  0.93437446  0.84921366     0.99900
C42         C  0.70709033  0.88010243  0.79658453     1.05800
O43         O  0.63641419  0.92009313  0.82831801    -0.76800
C44         C  0.65179289  0.85414161  0.92802817     1.04100
Fe45       Fe  0.87496981  0.63095939  0.80844752     1.65800
Fe46       Fe  0.87410125  0.68855355  0.86650702     1.73200
Fe47       Fe  0.81709064  0.63022734  0.86599909     1.54400
O48         O  0.79482836  0.62499709  0.82279253    -0.80500
O49         O  0.87152008  0.67057911  0.91239677    -0.78800
O50         O  0.83200139  0.62568800  0.78523069    -0.83000
O51         O  0.87297415  0.58527816  0.82611922    -0.77900
O52         O  0.79341012  0.67323364  0.86999371    -0.79700
O53         O  0.92028143  0.67161344  0.86369384    -0.82400
C54         C  0.85651736  0.57072589  0.84687677     0.98300
C55         C  0.80310483  0.62416451  0.79377800     1.05800
O56         O  0.85550011  0.64983534  0.84707342    -1.11400
O57         O  0.87873088  0.71150433  0.82323896    -0.73800
O58         O  0.87919138  0.67409610  0.78579931    -0.77300
O59         O  0.83563524  0.58475480  0.86365642    -0.78000
C60         C  0.88030181  0.70307222  0.79422545     0.97300
O61         O  0.92065454  0.63439761  0.82597993    -0.76000
O62         O  0.83048048  0.71105684  0.87116325    -0.81200
C63         C  0.85455627  0.64990069  0.92660255     0.99900
C64         C  0.80154198  0.70234643  0.87151406     1.05800
O65         O  0.83403568  0.63324000  0.91197624    -0.76800
C66         C  0.93492301  0.65147056  0.84646169     1.04100
Fe67       Fe  0.68978150  0.63057382  0.62492552     1.65800
Fe68       Fe  0.63258222  0.63243014  0.68324175     1.73200
Fe69       Fe  0.63426079  0.69014062  0.62555818     1.54400
O70         O  0.67817736  0.71161649  0.62022749    -0.80500
O71         O  0.58668714  0.63700967  0.66645631    -0.78800
O72         O  0.71400499  0.67283358  0.61844775    -0.83000
O73         O  0.67081213  0.63244234  0.57964688    -0.77900
O74         O  0.63091433  0.71311222  0.66875557    -0.79700
O75         O  0.63276144  0.58673555  0.66541310    -0.82400
C76         C  0.65065426  0.65002738  0.56560852     0.98300
C77         C  0.70671746  0.70212852  0.61777819     1.05800
O78         O  0.65214779  0.65099924  0.64453756    -1.11400
O79         O  0.67589058  0.62578075  0.70525555    -0.73800
O80         O  0.71327226  0.62655478  0.66776760    -0.77300
O81         O  0.63566456  0.67199117  0.57999013    -0.78000
C82         C  0.70484953  0.62484810  0.69674396     0.97300
O83         O  0.67120087  0.58546653  0.62912270    -0.76000
O84         O  0.63012575  0.67569594  0.70619677    -0.81200
C85         C  0.57287045  0.65414141  0.64574998     0.99900
C86         C  0.62972815  0.70471333  0.69775956     1.05800
O87         O  0.58790098  0.67412940  0.62871813    -0.76800
C88         C  0.64967541  0.57183244  0.64532252     1.04100
Fe89       Fe  0.87436209  0.13072863  0.68115695     1.65800
Fe90       Fe  0.81523078  0.13168867  0.62502896     1.73200
Fe91       Fe  0.87351873  0.18884741  0.62382968     1.54400
O92         O  0.87768681  0.21152500  0.66710645    -0.80500
O93         O  0.83203858  0.13480674  0.57898607    -0.78800
O94         O  0.87987576  0.17377488  0.70417894    -0.83000
O95         O  0.91973938  0.13299418  0.66261774    -0.77900
O96         O  0.83049732  0.21202873  0.61862870    -0.79700
O97         O  0.83251772  0.08542494  0.62664787    -0.82400
C98         C  0.93396433  0.15061929  0.64260306     0.98300
C99         C  0.87992621  0.20288633  0.69599909     1.05800
O100        O  0.85441567  0.15035001  0.64327204    -1.11400
O101        O  0.79349418  0.12649503  0.66880425    -0.73800
O102        O  0.83183794  0.12599648  0.70515730    -0.77300
O103        O  0.91943595  0.17175105  0.62664822    -0.78000
C104        C  0.80269116  0.12481420  0.69755231     0.97300
O105        O  0.87083171  0.08530219  0.66309369    -0.76000
O106        O  0.79248599  0.17535366  0.62138903    -0.81200
C107        C  0.85346693  0.15034277  0.56434302     0.99900
C108        C  0.80136272  0.20419031  0.61882947     1.05800
O109        O  0.87117430  0.17049523  0.57830602    -0.76800
C110        C  0.85351474  0.07095986  0.64291744     1.04100
Fe111      Fe  0.87490928  0.37295794  0.80763835     1.65800
Fe112      Fe  0.81660792  0.37367462  0.86474874     1.73200
Fe113      Fe  0.87436401  0.31619587  0.86630084     1.54400
O114        O  0.87812816  0.29225815  0.82339019    -0.80500
O115        O  0.83254114  0.36992834  0.91116942    -0.78800
O116        O  0.87989730  0.32944096  0.78574044    -0.83000
O117        O  0.92055552  0.37093242  0.82548392    -0.77900
O118        O  0.83104643  0.29392983  0.87239970    -0.79700
O119        O  0.83538093  0.41898329  0.86319075    -0.82400
C120        C  0.93488003  0.35386293  0.84586442     0.98300
C121        C  0.88005297  0.30046953  0.79432569     1.05800
O122        O  0.85536953  0.35434477  0.84631663    -1.11400
O123        O  0.79468545  0.37963048  0.82114931    -0.73800
O124        O  0.83216958  0.37721591  0.78404874    -0.77300
O125        O  0.92038035  0.33321679  0.86259630    -0.78000
C126        C  0.80326781  0.37992539  0.79217380     0.97300
O127        O  0.87185916  0.41880176  0.82476520    -0.76000
O128        O  0.79329710  0.33071629  0.86815312    -0.81200
C129        C  0.85376558  0.35433639  0.92596852     0.99900
C130        C  0.80198325  0.30201852  0.87177771     1.05800
O131        O  0.87226218  0.33504666  0.91178361    -0.76800
C132        C  0.85584099  0.43316002  0.84600717     1.04100
Fe133      Fe  0.63335616  0.13257741  0.80969569     1.65800
Fe134      Fe  0.69009601  0.13229172  0.86804125     1.73200
Fe135      Fe  0.63229833  0.19002535  0.86778014     1.54400
O136        O  0.62844883  0.21343020  0.82465030    -0.80500
O137        O  0.67219123  0.13509631  0.91360998    -0.78800
O138        O  0.62965005  0.17614078  0.78701569    -0.83000
O139        O  0.58732865  0.13548321  0.82647362    -0.77900
O140        O  0.67544274  0.21282239  0.87336618    -0.79700
O141        O  0.67227632  0.08667971  0.86551614    -0.82400
C142        C  0.57251452  0.15202815  0.84699454     0.98300
C143        C  0.62826710  0.20515747  0.79555652     1.05800
O144        O  0.65183271  0.15157232  0.84857594    -1.11400
O145        O  0.71358185  0.12722376  0.82517776    -0.73800
O146        O  0.67677996  0.12747080  0.78733898    -0.77300
O147        O  0.58644554  0.17250269  0.86436992    -0.78000
C148        C  0.70558981  0.12590824  0.79608112     0.97300
O149        O  0.63534600  0.08664158  0.82764357    -0.76000
O150        O  0.71273420  0.17538332  0.87267288    -0.81200
C151        C  0.65111437  0.15139973  0.92780036     0.99900
C152        C  0.70438415  0.20434626  0.87428976     1.05800
O153        O  0.63416660  0.17181571  0.91336188    -0.76800
C154        C  0.65170325  0.07232533  0.84870814     1.04100
Fe155      Fe  0.63264928  0.37457408  0.68221644     1.65800
Fe156      Fe  0.68909051  0.37492070  0.62385448     1.73200
Fe157      Fe  0.63257229  0.31672424  0.62506675     1.54400
O158        O  0.62460792  0.29562306  0.66908141    -0.80500
O159        O  0.66837034  0.37589003  0.57964121    -0.78800
O160        O  0.63321414  0.33209796  0.70662616    -0.83000
O161        O  0.58630406  0.36727703  0.66706801    -0.77900
O162        O  0.67559426  0.29327691  0.62418391    -0.79700
O163        O  0.67291866  0.42097912  0.63081060    -0.82400
C164        C  0.57263871  0.35385271  0.64360518     0.98300
C165        C  0.62806051  0.30356077  0.69812619     1.05800
O166        O  0.65141129  0.35542100  0.64368996    -1.11400
O167        O  0.71358656  0.37583818  0.66597432    -0.73800
O168        O  0.67650352  0.38452733  0.70268271    -0.77300
O169        O  0.58763537  0.33625120  0.62413014    -0.78000
C170        C  0.70548708  0.38178803  0.69444026     0.97300
O171        O  0.63027164  0.41902118  0.66206422    -0.76000
O172        O  0.71106466  0.33152178  0.61468608    -0.81200
C173        C  0.65133744  0.35589183  0.56475898     0.99900
C174        C  0.70377919  0.30230157  0.61816120     1.05800
O175        O  0.63839264  0.33219224  0.57850017    -0.76800
C176        C  0.64955806  0.43433889  0.64462406     1.04100
Fe177      Fe  0.13348722  0.81808188  0.62515658     1.65800
Fe178      Fe  0.13343471  0.87583490  0.68258066     1.73200
Fe179      Fe  0.19101203  0.87592746  0.62498515     1.54400
O180        O  0.21324570  0.83230991  0.61836369    -0.80500
O181        O  0.13385654  0.92093542  0.66377941    -0.78800
O182        O  0.17623717  0.79479195  0.62283042    -0.83000
O183        O  0.13793705  0.83494141  0.57897798    -0.77900
O184        O  0.21429416  0.87843551  0.66792236    -0.79700
O185        O  0.08748864  0.87097817  0.66600994    -0.82400
C186        C  0.15291520  0.85727490  0.56502842     0.98300
C187        C  0.20499648  0.80319540  0.61977248     1.05800
O188        O  0.15257293  0.85671613  0.64413886    -1.11400
O189        O  0.13135846  0.83301642  0.70605082    -0.73800
O190        O  0.12695242  0.79573080  0.66876498    -0.77300
O191        O  0.17216800  0.87537048  0.57970021    -0.78000
C192        C  0.12832174  0.80412595  0.69782453     0.97300
O193        O  0.08834050  0.83668491  0.62569837    -0.76000
O194        O  0.17663505  0.88306063  0.70471363    -0.81200
C195        C  0.15229625  0.93597353  0.64518020     0.99900
C196        C  0.20569141  0.88204435  0.69665335     1.05800
O197        O  0.17448027  0.92225704  0.62981512    -0.76800
C198        C  0.07362007  0.85582304  0.64382733     1.04100
Fe199      Fe  0.37505407  0.81876185  0.86672790     1.65800
Fe200      Fe  0.37449376  0.87682619  0.80961367     1.73200
Fe201      Fe  0.31679817  0.87556167  0.86736298     1.54400
O202        O  0.29381617  0.83232987  0.87029387    -0.80500
O203        O  0.37048001  0.92257323  0.82722743    -0.78800
O204        O  0.33198835  0.79615554  0.87464253    -0.83000
O205        O  0.37510527  0.83782553  0.91179103    -0.77900
O206        O  0.29422511  0.88190042  0.82418364    -0.79700
O207        O  0.42014206  0.87571839  0.82737556    -0.82400
C208        C  0.35661914  0.85646190  0.92675659     0.98300
C209        C  0.30279054  0.80374792  0.87401523     1.05800
O210        O  0.35551993  0.85716688  0.84798649    -1.11400
O211        O  0.38021272  0.83355928  0.78676373    -0.73800
O212        O  0.37642736  0.79569174  0.82359023    -0.77300
O213        O  0.33399271  0.87119934  0.91321182    -0.78000
C214        C  0.37889203  0.80439266  0.79475167     0.97300
O215        O  0.42122235  0.83521346  0.86139753    -0.76000
O216        O  0.33149815  0.88020840  0.78676721    -0.81200
C217        C  0.35437505  0.93613908  0.84893936     0.99900
C218        C  0.30262861  0.88227026  0.79514699     1.05800
O219        O  0.33481796  0.92111371  0.86641942    -0.76800
C220        C  0.43508593  0.85732227  0.84606455     1.04100
Fe221      Fe  0.13318337  0.69150492  0.86830318     1.65800
Fe222      Fe  0.13392908  0.63428021  0.81057569     1.73200
Fe223      Fe  0.19015297  0.63342036  0.86912959     1.54400
O224        O  0.21436923  0.67603120  0.87006314    -0.80500
O225        O  0.13892541  0.58812298  0.82693161    -0.78800
O226        O  0.17686803  0.71258202  0.87745373    -0.83000
O227        O  0.13136559  0.67193276  0.91321106    -0.77900
O228        O  0.21264835  0.62404238  0.82610158    -0.79700
O229        O  0.08842145  0.63424388  0.82882509    -0.82400
C230        C  0.15046825  0.65424345  0.92846940     0.98300
C231        C  0.20594272  0.70461633  0.87513520     1.05800
O232        O  0.15232619  0.65299888  0.84941255    -1.11400
O233        O  0.12687414  0.67789214  0.78869377    -0.73800
O234        O  0.13315882  0.71540721  0.82550956    -0.77300
O235        O  0.17364262  0.64022363  0.91504162    -0.78000
C236        C  0.12908103  0.70697996  0.79676904     0.97300
O237        O  0.08682487  0.67602268  0.86137607    -0.76000
O238        O  0.17724467  0.63252526  0.78787058    -0.81200
C239        C  0.15212624  0.57408303  0.85025033     0.99900
C240        C  0.20542400  0.62665289  0.79683751     1.05800
O241        O  0.16980215  0.58874196  0.86991111    -0.76800
C242        C  0.07317010  0.65338857  0.84657525     1.04100
Fe243      Fe  0.37381324  0.69073416  0.62504428     1.65800
Fe244      Fe  0.37533736  0.63390367  0.68338397     1.73200
Fe245      Fe  0.31700884  0.63274487  0.62686063     1.54400
O246        O  0.29271950  0.67539176  0.62708270    -0.80500
O247        O  0.37073566  0.58774100  0.66674526    -0.78800
O248        O  0.33007236  0.71158360  0.61715226    -0.83000
O249        O  0.37421162  0.67062097  0.58019968    -0.77900
O250        O  0.29638668  0.62355583  0.67065380    -0.79700
O251        O  0.42045829  0.63475319  0.66397890    -0.82400
C252        C  0.35429749  0.65310706  0.56569440     0.98300
C253        C  0.30118408  0.70386444  0.62133480     1.05800
O254        O  0.35551405  0.65235001  0.64503628    -1.11400
O255        O  0.38184511  0.67779210  0.70469971    -0.73800
O256        O  0.37476842  0.71500036  0.66764305    -0.77300
O257        O  0.33151287  0.63943529  0.58017124    -0.78000
C258        C  0.37894859  0.70676744  0.69642238     0.97300
O259        O  0.42028183  0.67579249  0.63058890    -0.76000
O260        O  0.33286529  0.63120637  0.70799465    -0.81200
C261        C  0.35664633  0.57370866  0.64389067     0.99900
C262        C  0.30437076  0.62585548  0.69971494     1.05800
O263        O  0.33756675  0.58816944  0.62542390    -0.76800
C264        C  0.43481179  0.65379793  0.64537209     1.04100
Fe265      Fe  0.13119223  0.13463849  0.68427784     1.65800
Fe266      Fe  0.13192471  0.19154329  0.62569827     1.73200
Fe267      Fe  0.18953680  0.13404731  0.62730710     1.54400
O268        O  0.21129600  0.12870777  0.67098576    -0.80500
O269        O  0.13382634  0.17269748  0.58050953    -0.78800
O270        O  0.17391251  0.13188850  0.70819719    -0.83000
O271        O  0.13550891  0.08846103  0.66774356    -0.77900
O272        O  0.21259536  0.17723223  0.62420315    -0.79700
O273        O  0.08608258  0.17430570  0.62916039    -0.82400
C274        C  0.15165229  0.07402421  0.64659990     0.98300
C275        C  0.20284314  0.12947822  0.70000055     1.05800
O276        O  0.15076569  0.15328088  0.64566545    -1.11400
O277        O  0.12828256  0.21519998  0.66825231    -0.73800
O278        O  0.12503638  0.17829624  0.70614766    -0.77300
O279        O  0.17150339  0.08839153  0.62889858    -0.78000
C280        C  0.12585940  0.20718508  0.69723784     0.97300
O281        O  0.08590346  0.13561497  0.66532609    -0.76000
O282        O  0.17517780  0.21429389  0.62027075    -0.81200
C283        C  0.15161400  0.15274566  0.56647641     0.99900
C284        C  0.20418022  0.20612778  0.62162313     1.05800
O285        O  0.17307928  0.13729469  0.58107449    -0.76800
C286        C  0.07169694  0.15291596  0.64500605     1.04100
Fe287      Fe  0.37613798  0.37660450  0.68365609     1.65800
Fe288      Fe  0.37420442  0.31804230  0.62690743     1.73200
Fe289      Fe  0.31758566  0.37664288  0.62672758     1.54400
O290        O  0.29613162  0.38349210  0.67035455    -0.80500
O291        O  0.37115509  0.33485360  0.58089141    -0.78800
O292        O  0.33351653  0.38170429  0.70762895    -0.83000
O293        O  0.37345979  0.42206015  0.66527927    -0.77900
O294        O  0.29349686  0.33369455  0.62448180    -0.79700
O295        O  0.42026571  0.33503339  0.62827892    -0.82400
C296        C  0.35756194  0.43622267  0.64384399     0.98300
C297        C  0.30460001  0.38394660  0.69935527     1.05800
O298        O  0.35604770  0.35718070  0.64567119    -1.11400
O299        O  0.37903534  0.29587831  0.67043479    -0.73800
O300        O  0.38098776  0.33375643  0.70725336    -0.77300
O301        O  0.33682412  0.42193328  0.62711451    -0.78000
C302        C  0.38105701  0.30460361  0.69929639     0.97300
O303        O  0.42138308  0.37346798  0.66471328    -0.76000
O304        O  0.33057031  0.29596252  0.62353778    -0.81200
C305        C  0.35397088  0.35487516  0.56619686     0.99900
C306        C  0.30166079  0.30457726  0.62347861     1.05800
O307        O  0.33352456  0.37202673  0.58035716    -0.76800
C308        C  0.43512207  0.35612394  0.64406774     1.04100
Fe309      Fe  0.31690134  0.13416493  0.86971282     1.65800
Fe310      Fe  0.37350887  0.13431905  0.81111153     1.73200
Fe311      Fe  0.37538049  0.19112500  0.86984509     1.54400
O312        O  0.33248605  0.21454488  0.87626344    -0.80500
O313        O  0.41953532  0.13623169  0.82767279    -0.78800
O314        O  0.29499387  0.17735841  0.87673223    -0.83000
O315        O  0.33603760  0.13453143  0.91485779    -0.77900
O316        O  0.37914405  0.21505295  0.82696427    -0.79700
O317        O  0.37101724  0.08811092  0.82792306    -0.82400
C318        C  0.35736388  0.15049517  0.92910191     0.98300
C319        C  0.30349016  0.20629145  0.87813325     1.05800
O320        O  0.35536081  0.15314950  0.85029045    -1.11400
O321        O  0.32986035  0.13041909  0.78916451    -0.73800
O322        O  0.29290577  0.13172633  0.82693705    -0.77300
O323        O  0.37370021  0.17179012  0.91507490    -0.78000
C324        C  0.30095359  0.13033613  0.79782843     0.97300
O325        O  0.33331768  0.08837164  0.86501408    -0.76000
O326        O  0.37803959  0.17798568  0.78917708    -0.81200
C327        C  0.43468247  0.15266951  0.84800201     0.99900
C328        C  0.37965558  0.20692197  0.79782229     1.05800
O329        O  0.42110179  0.17326137  0.86555096    -0.76800
C330        C  0.35377149  0.07385120  0.84825960     1.04100
Fe331      Fe  0.13398735  0.37663455  0.81010498     1.65800
Fe332      Fe  0.13344979  0.31815348  0.86693831     1.73200
Fe333      Fe  0.19060293  0.37632904  0.86890370     1.54400
O334        O  0.21496109  0.38004913  0.82628255    -0.80500
O335        O  0.13576183  0.33487528  0.91307439    -0.78800
O336        O  0.17774275  0.38378544  0.78893107    -0.83000
O337        O  0.13414651  0.42171853  0.82934418    -0.77900
O338        O  0.21335191  0.33315203  0.87546709    -0.79700
O339        O  0.08774582  0.33573153  0.86438220    -0.82400
C340        C  0.15166858  0.43629730  0.84916042     0.98300
C341        C  0.20671171  0.38327724  0.79737878     1.05800
O342        O  0.15261499  0.35709815  0.84871445    -1.11400
O343        O  0.12893512  0.29617988  0.82324719    -0.73800
O344        O  0.13196148  0.33392756  0.78610935    -0.77300
O345        O  0.17337981  0.42226406  0.86480371    -0.78000
C346        C  0.12949487  0.30494179  0.79431904     0.97300
O347        O  0.08746057  0.37172877  0.82558201    -0.76000
O348        O  0.17663399  0.29536141  0.87150398    -0.81200
C349        C  0.15101346  0.35637100  0.92789682     0.99900
C350        C  0.20532102  0.30399255  0.87515957     1.05800
O351        O  0.17100329  0.37440117  0.91404041    -0.76800
C352        C  0.07312256  0.35522721  0.84651911     1.04100
Fe353      Fe  0.81715205  0.87257206  0.36776050     1.65800
Fe354      Fe  0.87404329  0.81419340  0.36745263     1.73200
Fe355      Fe  0.87344353  0.87085017  0.30879404     1.54400
O356        O  0.83011576  0.87493564  0.28641039    -0.80500
O357        O  0.91989364  0.83070327  0.36261422    -0.78800
O358        O  0.79394883  0.87884125  0.32479300    -0.83000
O359        O  0.83664039  0.91785038  0.36593074    -0.77900
O360        O  0.87783834  0.82721064  0.28679258    -0.79700
O361        O  0.87387617  0.83322168  0.41258666    -0.82400
C362        C  0.85658310  0.93159265  0.34775404     0.98300
C363        C  0.80156739  0.87817949  0.29552725     1.05800
O364        O  0.85492887  0.85259086  0.34804611    -1.11400
O365        O  0.83072468  0.79234841  0.37439583    -0.73800
O366        O  0.79333293  0.82959983  0.37137791    -0.77300
O367        O  0.87119868  0.91683674  0.32577945    -0.78000
C368        C  0.80174066  0.80064745  0.37398989     0.97300
O369        O  0.83479986  0.86876233  0.41354554    -0.76000
O370        O  0.87638836  0.79029687  0.32477511    -0.81200
C371        C  0.93386282  0.85167870  0.34593121     0.99900
C372        C  0.87790736  0.79833181  0.29569896     1.05800
O373        O  0.91916572  0.86877174  0.32587702    -0.76800
C374        C  0.85672373  0.85321941  0.42731616     1.04100
Fe375      Fe  0.81480098  0.63031940  0.12481084     1.65800
Fe376      Fe  0.87315976  0.68732445  0.12558886     1.73200
Fe377      Fe  0.87168728  0.62931267  0.18284517     1.54400
O378        O  0.82801019  0.62195460  0.20462772    -0.80500
O379        O  0.91825563  0.66770773  0.12590832    -0.78800
O380        O  0.79084758  0.62817603  0.16763225    -0.83000
O381        O  0.83049576  0.58376734  0.12982681    -0.77900
O382        O  0.87351322  0.67182478  0.20659838    -0.79700
O383        O  0.86806479  0.67138776  0.07918007    -0.82400
C384        C  0.85255719  0.56976819  0.14505530     0.98300
C385        C  0.79902003  0.62382816  0.19639587     1.05800
O386        O  0.85330426  0.64888621  0.14429056    -1.11400
O387        O  0.83057988  0.71161806  0.12357945    -0.73800
O388        O  0.79352459  0.67419254  0.11793924    -0.77300
O389        O  0.87134350  0.58450467  0.16351089    -0.78000
C390        C  0.80183487  0.70324549  0.11977843     0.97300
O391        O  0.83406086  0.63077623  0.07954365    -0.76000
O392        O  0.88032767  0.70884383  0.16935460    -0.81200
C393        C  0.93259873  0.64892127  0.14478182     0.99900
C394        C  0.87786014  0.70051273  0.19834367     1.05800
O395        O  0.91809057  0.63429819  0.16698905    -0.76800
C396        C  0.85298924  0.64932768  0.06493330     1.04100
Fe397      Fe  0.68919377  0.87311616  0.12592879     1.65800
Fe398      Fe  0.63201665  0.81491194  0.12595815     1.73200
Fe399      Fe  0.63126935  0.87281605  0.18341442     1.54400
O400        O  0.67425198  0.87737839  0.20655678    -0.80500
O401        O  0.58570681  0.83074043  0.13053184    -0.78800
O402        O  0.71161980  0.87956169  0.16924932    -0.83000
O403        O  0.67013084  0.91850368  0.12696147    -0.77900
O404        O  0.62675759  0.82947790  0.20611264    -0.79700
O405        O  0.63242795  0.83366193  0.08057299    -0.82400
C406        C  0.64961671  0.93279673  0.14400362     0.98300
C407        C  0.70317120  0.87963888  0.19828111     1.05800
O408        O  0.65074298  0.85371043  0.14500886    -1.11400
O409        O  0.67546771  0.79317778  0.11908508    -0.73800
O410        O  0.71302786  0.83022945  0.12295933    -0.77300
O411        O  0.63389574  0.91856678  0.16559166    -0.78000
C412        C  0.70449033  0.80138833  0.11987782     0.97300
O413        O  0.67225966  0.86857267  0.07999853    -0.76000
O414        O  0.63012368  0.79165184  0.16911725    -0.81200
C415        C  0.57115819  0.85206888  0.14626767     0.99900
C416        C  0.62793555  0.80036142  0.19798800     1.05800
O417        O  0.58552536  0.87026654  0.16567030    -0.76800
C418        C  0.65040966  0.85310091  0.06594358     1.04100
Fe419      Fe  0.68864617  0.63044157  0.36807258     1.65800
Fe420      Fe  0.63189973  0.68873825  0.36852092     1.73200
Fe421      Fe  0.63028914  0.63085166  0.31127080     1.54400
O422        O  0.67290686  0.62746052  0.28737062    -0.80500
O423        O  0.58558197  0.67349883  0.36342366    -0.78800
O424        O  0.71047079  0.62324558  0.32431522    -0.83000
O425        O  0.66959689  0.58518919  0.36774812    -0.77900
O426        O  0.62436204  0.67442606  0.28899587    -0.79700
O427        O  0.63139315  0.66940765  0.41348375    -0.82400
C428        C  0.65004898  0.57064316  0.34988298     0.98300
C429        C  0.70178639  0.62402351  0.29532733     1.05800
O430        O  0.65020463  0.64987124  0.34937006    -1.11400
O431        O  0.67540552  0.71017349  0.37609338    -0.73800
O432        O  0.71257167  0.67323311  0.37005428    -0.77300
O433        O  0.63445270  0.58483180  0.32820569    -0.78000
C434        C  0.70434796  0.70201008  0.37410745     0.97300
O435        O  0.67198789  0.63543980  0.41432385    -0.76000
O436        O  0.63094064  0.71213225  0.32559131    -0.81200
C437        C  0.57091236  0.65132833  0.34906747     0.99900
C438        C  0.62717005  0.70352431  0.29688633     1.05800
O439        O  0.58503345  0.63217334  0.33041899    -0.76800
C440        C  0.64950410  0.65025078  0.42818432     1.04100
Fe441      Fe  0.62896717  0.13092762  0.18338272     1.65800
Fe442      Fe  0.62974818  0.18815095  0.12536533     1.73200
Fe443      Fe  0.68671702  0.13017039  0.12609989     1.54400
O444        O  0.70812864  0.12241281  0.16960421    -0.80500
O445        O  0.62994920  0.16870868  0.08028999    -0.78800
O446        O  0.67166906  0.12928772  0.20722781    -0.83000
O447        O  0.63395313  0.08445725  0.16702807    -0.77900
O448        O  0.71067741  0.17275146  0.12471473    -0.79700
O449        O  0.58336390  0.17212654  0.13070529    -0.82400
C450        C  0.64829486  0.07056333  0.14421610     0.98300
C451        C  0.70024843  0.12493694  0.19867059     1.05800
O452        O  0.64835183  0.14967790  0.14485895    -1.11400
O453        O  0.62782802  0.21211469  0.16807696    -0.73800
O454        O  0.62168413  0.17472485  0.20502100    -0.77300
O455        O  0.66700374  0.08534625  0.12566284    -0.78000
C456        C  0.62353543  0.20382232  0.19681517     0.97300
O457        O  0.58392041  0.13113147  0.16427576    -0.76000
O458        O  0.67355121  0.20977004  0.11798816    -0.81200
C459        C  0.64897783  0.15034756  0.06566554     0.99900
C460        C  0.70252466  0.20147426  0.12026655     1.05800
O461        O  0.67125303  0.13575396  0.07985475    -0.76800
C462        C  0.56922852  0.14991537  0.14573772     1.04100
Fe463      Fe  0.68748164  0.37135833  0.36689558     1.65800
Fe464      Fe  0.62879956  0.37337612  0.31074870     1.73200
Fe465      Fe  0.62892617  0.31507624  0.36774989     1.54400
O466        O  0.67123471  0.29026548  0.36876703    -0.80500
O467        O  0.58272801  0.36881279  0.32792686    -0.78800
O468        O  0.70838686  0.32728437  0.37477943    -0.83000
O469        O  0.66876931  0.37253966  0.41198596    -0.77900
O470        O  0.62062243  0.29367227  0.32402552    -0.79700
O471        O  0.62987965  0.41815824  0.33055673    -0.82400
C472        C  0.65028597  0.35418610  0.42728452     0.98300
C473        C  0.70001463  0.29824225  0.37291569     1.05800
O474        O  0.64829001  0.35333352  0.34854324    -1.11400
O475        O  0.67212455  0.38031459  0.28801031    -0.73800
O476        O  0.71007649  0.37156084  0.32371648    -0.77300
O477        O  0.63529389  0.33145493  0.41396161    -0.78000
C478        C  0.70121791  0.37663239  0.29533347     0.97300
O479        O  0.67278003  0.41818774  0.36137267    -0.76000
O480        O  0.62594713  0.33081134  0.28666472    -0.81200
C481        C  0.56919157  0.35398137  0.35061709     0.99900
C482        C  0.62208222  0.30200026  0.29493336     1.05800
O483        O  0.58419613  0.33499928  0.36869569    -0.76800
C484        C  0.64978866  0.43259441  0.34805575     1.04100
Fe485      Fe  0.81462831  0.12775669  0.36718713     1.65800
Fe486      Fe  0.87160753  0.12980889  0.30873101     1.73200
Fe487      Fe  0.87044918  0.18715209  0.36669015     1.54400
O488        O  0.82687373  0.20915695  0.37026594    -0.80500
O489        O  0.91747588  0.13414397  0.32575596    -0.78800
O490        O  0.79072388  0.17066166  0.37348211    -0.83000
O491        O  0.83334379  0.12945583  0.41241372    -0.77900
O492        O  0.87562268  0.21005341  0.32348988    -0.79700
O493        O  0.87138284  0.08419807  0.32649960    -0.82400
C494        C  0.85262657  0.14770913  0.42678926     0.98300
C495        C  0.79824931  0.20002548  0.37307145     1.05800
O496        O  0.85229144  0.14816823  0.34760325    -1.11400
O497        O  0.82819874  0.12370089  0.28659960    -0.73800
O498        O  0.79118562  0.12409644  0.32436639    -0.77300
O499        O  0.86742466  0.16993095  0.41259779    -0.78000
C500        C  0.79928052  0.12308566  0.29528280     0.97300
O501        O  0.83333523  0.08215756  0.36324683    -0.76000
O502        O  0.87415424  0.17297656  0.28583678    -0.81200
C503        C  0.93108948  0.15008720  0.34756300     0.99900
C504        C  0.87575667  0.20187636  0.29439784     1.05800
O505        O  0.91613455  0.16972441  0.36501271    -0.76800
C506        C  0.85510058  0.06896767  0.34686201     1.04100
Fe507      Fe  0.87222984  0.31507986  0.12465096     1.65800
Fe508      Fe  0.81364414  0.37177291  0.12475612     1.73200
Fe509      Fe  0.87054984  0.37190239  0.18297923     1.54400
O510        O  0.87231711  0.32891996  0.20613131    -0.80500
O511        O  0.82971154  0.41814351  0.13018177    -0.78800
O512        O  0.87859690  0.29260177  0.16807567    -0.83000
O513        O  0.91757569  0.33418401  0.12614581    -0.77900
O514        O  0.82702635  0.37856492  0.20452404    -0.79700
O515        O  0.83252406  0.37173650  0.07934565    -0.82400
C516        C  0.93168380  0.35252538  0.14565320     0.98300
C517        C  0.87632941  0.30035235  0.19725752     1.05800
O518        O  0.85228842  0.35305934  0.14395075    -1.11400
O519        O  0.79207790  0.32813109  0.11755161    -0.73800
O520        O  0.82957127  0.29110446  0.12160176    -0.77300
O521        O  0.91689535  0.36722008  0.16755422    -0.78000
C522        C  0.80067281  0.29916884  0.11854319     0.97300
O523        O  0.86771830  0.33218649  0.07853312    -0.76000
O524        O  0.78975110  0.37321288  0.16756220    -0.81200
C525        C  0.85175066  0.43197743  0.14563439     0.99900
C526        C  0.79807966  0.37659079  0.19637241     1.05800
O527        O  0.87021010  0.41710239  0.16432150    -0.76800
C528        C  0.85191268  0.35387769  0.06452101     1.04100
Fe529      Fe  0.12829019  0.18904019  0.36861663     1.65800
Fe530      Fe  0.12808733  0.13114885  0.31081652     1.73200
Fe531      Fe  0.18643272  0.13221037  0.36771637     1.54400
O532        O  0.20904809  0.17565483  0.37062265    -0.80500
O533        O  0.13194994  0.08541170  0.32853386    -0.78800
O534        O  0.17136803  0.21261683  0.37294960    -0.83000
O535        O  0.13134213  0.17155804  0.41452810    -0.77900
O536        O  0.20837817  0.12652907  0.32423399    -0.79700
O537        O  0.08271478  0.13264355  0.32927057    -0.82400
C538        C  0.14936428  0.15181476  0.42859012     0.98300
C539        C  0.20047402  0.20456778  0.37265717     1.05800
O540        O  0.14750058  0.15073474  0.34912280    -1.11400
O541        O  0.12193673  0.17426623  0.28797065    -0.73800
O542        O  0.12308498  0.21162451  0.32542765    -0.77300
O543        O  0.17024572  0.13583860  0.41379390    -0.78000
C544        C  0.12103288  0.20327915  0.29645787     0.97300
O545        O  0.08283264  0.17067024  0.36618618    -0.76000
O546        O  0.17089096  0.12772855  0.28712998    -0.81200
C547        C  0.14817960  0.07172404  0.35003523     0.99900
C548        C  0.19986830  0.12619989  0.29527425     1.05800
O549        O  0.16844733  0.08656937  0.36681720    -0.76800
C550        C  0.06849687  0.14961981  0.34984316     1.04100
Fe551      Fe  0.18748811  0.37238969  0.12562424     1.65800
Fe552      Fe  0.12937231  0.31516903  0.12610209     1.73200
Fe553      Fe  0.13054321  0.37307181  0.18353829     1.54400
O554        O  0.17410759  0.38113739  0.20485319    -0.80500
O555        O  0.08412013  0.33441577  0.12670730    -0.78800
O556        O  0.21165084  0.37431072  0.16830942    -0.83000
O557        O  0.17144894  0.41850709  0.13071680    -0.77900
O558        O  0.12900589  0.33018333  0.20740024    -0.79700
O559        O  0.13437216  0.33152827  0.07977866    -0.82400
C560        C  0.14882298  0.43264807  0.14487388     0.98300
C561        C  0.20316152  0.37911735  0.19691071     1.05800
O562        O  0.14906150  0.35355306  0.14502419    -1.11400
O563        O  0.17220953  0.29111357  0.12377781    -0.73800
O564        O  0.20886376  0.32893987  0.11809141    -0.77300
O565        O  0.13011548  0.41813719  0.16372591    -0.78000
C566        C  0.20084354  0.29984228  0.11966934     0.97300
O567        O  0.16808173  0.37234545  0.08067611    -0.76000
O568        O  0.12189198  0.29354274  0.16979850    -0.81200
C569        C  0.06977864  0.35259112  0.14620068     0.99900
C570        C  0.12387212  0.30158615  0.19891992     1.05800
O571        O  0.08431707  0.36729974  0.16824892    -0.76800
C572        C  0.14923952  0.35396220  0.06586500     1.04100
Fe573      Fe  0.37037182  0.13161546  0.18405236     1.65800
Fe574      Fe  0.31365050  0.13122003  0.12524508     1.73200
Fe575      Fe  0.37140519  0.18885426  0.12614806     1.54400
O576        O  0.37517619  0.21201752  0.16919243    -0.80500
O577        O  0.33313245  0.13218116  0.07994084    -0.78800
O578        O  0.37419232  0.17493737  0.20699498    -0.83000
O579        O  0.41659768  0.13436011  0.16747423    -0.77900
O580        O  0.32846386  0.21176685  0.12062360    -0.79700
O581        O  0.33022978  0.08527771  0.12971636    -0.82400
C582        C  0.43121637  0.15088595  0.14676497     0.98300
C583        C  0.37547802  0.20386211  0.19828127     1.05800
O584        O  0.35187404  0.15047033  0.14508552    -1.11400
O585        O  0.28970985  0.12837512  0.16811148    -0.73800
O586        O  0.32670926  0.12681187  0.20583135    -0.77300
O587        O  0.41703952  0.17128319  0.12958314    -0.78000
C588        C  0.29780450  0.12676215  0.19720550     0.97300
O589        O  0.36837822  0.08592968  0.16631428    -0.76000
O590        O  0.29121332  0.17435387  0.11854720    -0.81200
C591        C  0.35418448  0.14906265  0.06620728     0.99900
C592        C  0.29960461  0.20336659  0.11818400     1.05800
O593        O  0.36968388  0.17050321  0.08080450    -0.76800
C594        C  0.35114618  0.07124435  0.14631167     1.04100
Fe595      Fe  0.37222909  0.37445910  0.31048407     1.65800
Fe596      Fe  0.31424397  0.37520760  0.36818425     1.73200
Fe597      Fe  0.37077388  0.31651415  0.36762328     1.54400
O598        O  0.37659753  0.29408175  0.32431124    -0.80500
O599        O  0.33245928  0.37357242  0.41405452    -0.78800
O600        O  0.37470885  0.33146497  0.28693887    -0.83000
O601        O  0.41813859  0.36989691  0.32780278    -0.77900
O602        O  0.32740134  0.29406441  0.37032177    -0.79700
O603        O  0.33192153  0.42117565  0.36421507    -0.82400
C604        C  0.43164149  0.35384434  0.34960766     0.98300
C605        C  0.37640275  0.30248153  0.29529844     1.05800
O606        O  0.35249445  0.35552940  0.34886981    -1.11400
O607        O  0.29138443  0.37865601  0.32482314    -0.73800
O608        O  0.32913845  0.38118273  0.28785523    -0.77300
O609        O  0.41650328  0.33417218  0.36688411    -0.78000
C610        C  0.30004263  0.38106967  0.29592927     0.97300
O611        O  0.37150971  0.41980556  0.32903016    -0.76000
O612        O  0.29088012  0.33201195  0.37415892    -0.81200
C613        C  0.35170692  0.35496729  0.42813757     0.99900
C614        C  0.29869509  0.30278032  0.37320169     1.05800
O615        O  0.36680177  0.33330758  0.41345433    -0.76800
C616        C  0.35385610  0.43481650  0.34841782     1.04100
Fe617      Fe  0.13063586  0.68838523  0.12759458     1.65800
Fe618      Fe  0.18809414  0.63066104  0.12534092     1.73200
Fe619      Fe  0.13152809  0.62950616  0.18425269     1.54400
O620        O  0.12810040  0.67230039  0.20844045    -0.80500
O621        O  0.17012845  0.58488149  0.12711722    -0.78800
O622        O  0.12617911  0.70999783  0.17132637    -0.83000
O623        O  0.08495803  0.67027894  0.12988766    -0.77900
O624        O  0.17523366  0.62353228  0.20622549    -0.79700
O625        O  0.16987559  0.63447076  0.07997909    -0.82400
C626        C  0.07073472  0.64960318  0.14681492     0.98300
C627        C  0.12624123  0.70137115  0.20026870     1.05800
O628        O  0.15002161  0.64944374  0.14567215    -1.11400
O629        O  0.21099872  0.67400684  0.12132750    -0.73800
O630        O  0.17383165  0.71152285  0.12330049    -0.77300
O631        O  0.08527635  0.63309528  0.16759945    -0.78000
C632        C  0.20274908  0.70309576  0.12119041     0.97300
O633        O  0.13298293  0.67227383  0.08131370    -0.76000
O634        O  0.21170748  0.62488928  0.16790036    -0.81200
C635        C  0.14939702  0.57032098  0.14365602     0.99900
C636        C  0.20400907  0.62280635  0.19704069     1.05800
O637        O  0.13312688  0.58426900  0.16500896    -0.76800
C638        C  0.14941771  0.65190166  0.06625721     1.04100
Fe639      Fe  0.31550190  0.63248429  0.36656697     1.65800
Fe640      Fe  0.37403099  0.63276279  0.30963439     1.73200
Fe641      Fe  0.37294581  0.69060614  0.36711281     1.54400
O642        O  0.32977741  0.71327448  0.37019054    -0.80500
O643        O  0.41961072  0.63609277  0.32783030    -0.78800
O644        O  0.29241714  0.67581136  0.36982044    -0.83000
O645        O  0.33220417  0.63595831  0.41276881    -0.77900
O646        O  0.37877509  0.71312263  0.32385651    -0.79700
O647        O  0.37158359  0.58730330  0.32787274    -0.82400
C648        C  0.35249509  0.65297325  0.42736029     0.98300
C649        C  0.30081973  0.70488082  0.37056639     1.05800
O650        O  0.35421643  0.65185067  0.34784701    -1.11400
O651        O  0.33124193  0.62718322  0.28618559    -0.73800
O652        O  0.29327258  0.62655657  0.32304739    -0.77300
O653        O  0.36929118  0.67365531  0.41308541    -0.78000
C654        C  0.30220033  0.62523145  0.29418396     0.97300
O655        O  0.33367689  0.58671143  0.36491938    -0.76000
O656        O  0.37833888  0.67582200  0.28637522    -0.81200
C657        C  0.43333045  0.65256842  0.34918564     0.99900
C658        C  0.37975502  0.70480674  0.29482239     1.05800
O659        O  0.41852151  0.67286445  0.36596607    -0.76800
C660        C  0.35472910  0.57269547  0.34830831     1.04100
Fe661      Fe  0.13132178  0.87435135  0.30881133     1.65800
Fe662      Fe  0.13159442  0.81767259  0.36784312     1.73200
Fe663      Fe  0.18905701  0.87520090  0.36613126     1.54400
O664        O  0.21116122  0.88233503  0.32274314    -0.80500
O665        O  0.13264735  0.83688126  0.41310882    -0.78800
O666        O  0.17412482  0.87952858  0.28535409    -0.83000
O667        O  0.13354320  0.92048946  0.32660327    -0.77900
O668        O  0.21248196  0.83235282  0.36816750    -0.79700
O669        O  0.08576840  0.83413499  0.36380977    -0.82400
C670        C  0.14921331  0.93438727  0.34853653     0.98300
C671        C  0.20290057  0.88264698  0.29370204     1.05800
O672        O  0.15054606  0.85581830  0.34760834    -1.11400
O673        O  0.12839995  0.79373767  0.32520489    -0.73800
O674        O  0.12736353  0.83031489  0.28678428    -0.77300
O675        O  0.16958234  0.91993826  0.36547964    -0.78000
C676        C  0.12710105  0.80142983  0.29600554     0.97300
O677        O  0.08568437  0.87142676  0.32630198    -0.76000
O678        O  0.17492368  0.79558277  0.37398424    -0.81200
C679        C  0.15112675  0.85620314  0.42716605     0.99900
C680        C  0.20393099  0.80359708  0.37175900     1.05800
O681        O  0.17306873  0.87086941  0.41245053    -0.76800
C682        C  0.07135928  0.85442395  0.34675601     1.04100
Fe683      Fe  0.37281970  0.81596740  0.12421660     1.65800
Fe684      Fe  0.31490723  0.87331013  0.12352741     1.73200
Fe685      Fe  0.37228146  0.87390731  0.18103050     1.54400
O686        O  0.37301346  0.83128812  0.20512900    -0.80500
O687        O  0.33041337  0.91968386  0.12958929    -0.78800
O688        O  0.38062850  0.79452366  0.16780809    -0.83000
O689        O  0.41807986  0.83512454  0.12392796    -0.77900
O690        O  0.32876355  0.88288732  0.20227997    -0.79700
O691        O  0.33475827  0.87383746  0.07853119    -0.82400
C692        C  0.43288118  0.85297276  0.14334206     0.98300
C693        C  0.37810316  0.80266586  0.19683571     1.05800
O694        O  0.35339117  0.85446437  0.14284325    -1.11400
O695        O  0.29350519  0.82964157  0.11554432    -0.73800
O696        O  0.32996908  0.79207839  0.12284976    -0.77300
O697        O  0.41868625  0.86754512  0.16574856    -0.78000
C698        C  0.30138864  0.80056602  0.11826233     0.97300
O699        O  0.36745516  0.83222695  0.07825494    -0.76000
O700        O  0.29081265  0.87481347  0.16636184    -0.81200
C701        C  0.35330693  0.93347047  0.14372949     0.99900
C702        C  0.29961833  0.88063336  0.19469983     1.05800
O703        O  0.37307856  0.91847834  0.16091623    -0.76800
C704        C  0.35350486  0.85499599  0.06411176     1.04100
C705        C  0.21957165  0.88989031  0.23627314     0.24700
C706        C  0.22788075  0.88566069  0.26859755    -0.23400
C707        C  0.26037669  0.88269475  0.27641799     0.19600
C708        C  0.28361008  0.88199581  0.25255712     0.24700
C709        C  0.27511305  0.88427266  0.22011718    -0.23300
C710        C  0.24285274  0.88915727  0.21237907     0.19600
F711        F  0.23362840  0.89322984  0.18161774    -0.13300
F712        F  0.18882163  0.89455967  0.22753336    -0.15600
F713        F  0.31440997  0.87793044  0.26142442    -0.15600
F714        F  0.26990288  0.87939043  0.30717452    -0.13300
C715        C  0.37867360  0.76245596  0.27802529     0.24700
C716        C  0.38173218  0.72996551  0.26985939    -0.23400
C717        C  0.38528717  0.72183617  0.23741311     0.19600
C718        C  0.38475484  0.74536472  0.21381413     0.24700
C719        C  0.38067581  0.77775872  0.22195382    -0.23300
C720        C  0.37818478  0.78595872  0.25446518     0.19600
F721        F  0.37474893  0.81679438  0.26377396    -0.13300
F722        F  0.37533985  0.77177408  0.30886184    -0.15600
F723        F  0.38776230  0.73609014  0.18292147    -0.15600
F724        F  0.38896785  0.69100357  0.22819965    -0.13300
C725        C  0.28446247  0.76263415  0.36980628     0.24700
C726        C  0.27597736  0.73010651  0.37157202    -0.23400
C727        C  0.24345788  0.72208684  0.37361916     0.19600
C728        C  0.22017954  0.74583367  0.37413381     0.24700
C729        C  0.22870685  0.77834869  0.37260609    -0.23300
C730        C  0.26121826  0.78635769  0.37044044     0.19600
F731        F  0.27084123  0.81723726  0.36851393    -0.13300
F732        F  0.31532239  0.77183203  0.36688274    -0.15600
F733        F  0.18920949  0.73667629  0.37564285    -0.15600
F734        F  0.23385358  0.69117741  0.37481393    -0.13300
C735        C  0.22008272  0.76075552  0.12146946     0.24700
C736        C  0.22788703  0.72813685  0.11886369    -0.23400
C737        C  0.26015874  0.71976076  0.11472368     0.19600
C738        C  0.28386964  0.74318667  0.11387770     0.24700
C739        C  0.27607175  0.77572542  0.11698725    -0.23300
C740        C  0.24377637  0.78415868  0.12044351     0.19600
F741        F  0.23492082  0.81511497  0.12388540    -0.13300
F742        F  0.18950713  0.77030191  0.12574588    -0.15600
F743        F  0.31454867  0.73377305  0.11006375    -0.15600
F744        F  0.26910690  0.68879374  0.11168644    -0.13300
C745        C  0.13364536  0.71978788  0.25696214     0.24700
C746        C  0.12478573  0.72647001  0.22526590    -0.23400
C747        C  0.11587856  0.75791401  0.21733847     0.19600
C748        C  0.11633559  0.78207666  0.24026539     0.24700
C749        C  0.12563617  0.77553638  0.27183042    -0.23300
C750        C  0.13411918  0.74398474  0.27991144     0.19600
F751        F  0.14391159  0.73651003  0.30985201    -0.13300
F752        F  0.14291112  0.69002824  0.26573554    -0.15600
F753        F  0.10745506  0.81190945  0.23138490    -0.15600
F754        F  0.10657437  0.76551970  0.18728488    -0.13300
C755        C  0.26063210  0.63173555  0.21408064     0.24700
C756        C  0.22976615  0.62061574  0.22124392    -0.23400
C757        C  0.22360353  0.60894284  0.25214631     0.19600
C758        C  0.24729685  0.60963613  0.27561860     0.24700
C759        C  0.27773751  0.62204716  0.26877625    -0.23300
C760        C  0.28423983  0.63249084  0.23751455     0.19600
F761        F  0.31312433  0.64481916  0.22976356    -0.13300
F762        F  0.26781458  0.64327287  0.18467507    -0.15600
F763        F  0.24038288  0.59798294  0.30503655    -0.15600
F764        F  0.19464439  0.59669995  0.25973189    -0.13300
C765        C  0.37437925  0.48700499  0.32743562     0.24700
C766        C  0.35801748  0.46992914  0.35133105    -0.23400
C767        C  0.34364906  0.48713422  0.37637568     0.19600
C768        C  0.34398587  0.52054476  0.37643961     0.24700
C769        C  0.35861071  0.53756857  0.35139250    -0.23300
C770        C  0.37468610  0.52026400  0.32747272     0.19600
F771        F  0.38933329  0.53534126  0.30282449    -0.13300
F772        F  0.38866526  0.47172177  0.30271681    -0.15600
F773        F  0.32932404  0.53612519  0.40074001    -0.15600
F774        F  0.32863111  0.47172242  0.40057481    -0.13300
C775        C  0.37278741  0.98560402  0.16526211     0.24700
C776        C  0.35598397  0.96865194  0.14165725    -0.23400
C777        C  0.33945326  0.98589691  0.11809347     0.19600
C778        C  0.33890324  0.01923301  0.11876827     0.24700
C779        C  0.35468386  0.03614516  0.14318887    -0.23300
C780        C  0.37209117  0.01881947  0.16606947     0.19600
F781        F  0.38725543  0.03376995  0.19044595    -0.13300
F782        F  0.38847905  0.97012803  0.18894872    -0.15600
F783        F  0.32225040  0.03479101  0.09580550    -0.15600
F784        F  0.32318767  0.97058154  0.09466345    -0.13300
C785        C  0.38642174  0.22219946  0.25434077     0.24700
C786        C  0.37680238  0.22919419  0.22294939    -0.23400
C787        C  0.36757134  0.26062123  0.21551830     0.19600
C788        C  0.36787312  0.28439735  0.23882148     0.24700
C789        C  0.37743474  0.27744131  0.27026216    -0.23300
C790        C  0.38672155  0.24599845  0.27769783     0.19600
F791        F  0.39627272  0.23810621  0.30759889    -0.13300
F792        F  0.39584013  0.19233303  0.26254828    -0.15600
F793        F  0.35769406  0.31402349  0.23064263    -0.15600
F794        F  0.35714786  0.26832771  0.18586675    -0.13300
C795        C  0.16652296  0.51788648  0.11984327     0.24700
C796        C  0.14530974  0.53531065  0.13921785    -0.23400
C797        C  0.12204848  0.51839832  0.15663991     0.19600
C798        C  0.12208472  0.48505715  0.15723767     0.24700
C799        C  0.14521012  0.46767063  0.14018676    -0.23300
C800        C  0.16644626  0.48457220  0.12028799     0.19600
F801        F  0.18819697  0.46906164  0.10201820    -0.13300
F802        F  0.18849878  0.53288226  0.10139199    -0.15600
F803        F  0.10008754  0.47000580  0.17560274    -0.15600
F804        F  0.09973743  0.53400082  0.17411556    -0.13300
C805        C  0.21940561  0.38069063  0.25467726     0.24700
C806        C  0.22793637  0.38180603  0.22216579    -0.23400
C807        C  0.26044581  0.38445492  0.21423165     0.19600
C808        C  0.28373762  0.38502137  0.23806119     0.24700
C809        C  0.27523039  0.38294078  0.27058100    -0.23300
C810        C  0.24264073  0.38122295  0.27847282     0.19600
F811        F  0.23292954  0.37933802  0.30930938    -0.13300
F812        F  0.18848216  0.37817237  0.26376089    -0.15600
F813        F  0.31469712  0.38715363  0.22899156    -0.15600
F814        F  0.26997024  0.38636054  0.18333082    -0.13300
C815        C  0.21915288  0.24378595  0.10841074     0.24700
C816        C  0.22621849  0.27537445  0.11732272    -0.23400
C817        C  0.25792436  0.28335844  0.12477921     0.19600
C818        C  0.28179282  0.26026426  0.12405702     0.24700
C819        C  0.27466868  0.22841075  0.11600811    -0.23300
C820        C  0.24307504  0.22059082  0.10770295     0.19600
F821        F  0.23513086  0.19044974  0.09889833    -0.13300
F822        F  0.18908519  0.23525196  0.10017925    -0.15600
F823        F  0.31172483  0.26912453  0.13242208    -0.15600
F824        F  0.26584977  0.31336590  0.13408544    -0.13300
C825        C  0.16730098  0.98634660  0.37216097     0.24700
C826        C  0.14508864  0.96922231  0.35362046    -0.23400
C827        C  0.12072569  0.98626104  0.33811055     0.19600
C828        C  0.12042396  0.01962959  0.33864460     0.24700
C829        C  0.14460487  0.03673619  0.35452140    -0.23300
C830        C  0.16710756  0.01958552  0.37253642     0.19600
F831        F  0.19025632  0.03477387  0.38927635    -0.13300
F832        F  0.19057503  0.97117811  0.38870593    -0.15600
F833        F  0.09687702  0.03508903  0.32278963    -0.15600
F834        F  0.09758268  0.97078384  0.32164035    -0.13300
C835        C  0.21748099  0.26221921  0.37810402     0.24700
C836        C  0.22552088  0.22976604  0.37427534    -0.23400
C837        C  0.25795307  0.22167320  0.37124610     0.19600
C838        C  0.28149317  0.24519070  0.37158546     0.24700
C839        C  0.27348265  0.27772142  0.37477884    -0.23300
C840        C  0.24109550  0.28583433  0.37832146     0.19600
F841        F  0.23197295  0.31670706  0.38173702    -0.13300
F842        F  0.18668152  0.27140261  0.38142914    -0.15600
F843        F  0.31222437  0.23577706  0.36820906    -0.15600
F844        F  0.26724323  0.19089786  0.36733953    -0.13300
C845        C  0.24013981  0.12687338  0.21395736     0.24700
C846        C  0.27263115  0.12528019  0.22218220    -0.23400
C847        C  0.28080720  0.12322539  0.25474551     0.19600
C848        C  0.25730097  0.12307132  0.27829629     0.24700
C849        C  0.22480776  0.12476863  0.27008209    -0.23300
C850        C  0.21660201  0.12647398  0.23752009     0.19600
F851        F  0.18573102  0.12837995  0.22818764    -0.13300
F852        F  0.23084028  0.12942644  0.18305984    -0.15600
F853        F  0.26670528  0.12170485  0.30924746    -0.15600
F854        F  0.31167788  0.12178873  0.26418242    -0.13300
C855        C  0.12109366  0.26100362  0.27998304     0.24700
C856        C  0.11858169  0.22851538  0.27161195    -0.23400
C857        C  0.11533385  0.22054695  0.23910283     0.19600
C858        C  0.11633215  0.24420436  0.21561213     0.24700
C859        C  0.12049514  0.27656603  0.22393237    -0.23300
C860        C  0.12204129  0.28462485  0.25654303     0.19600
F861        F  0.12496669  0.31543678  0.26609276    -0.13300
F862        F  0.12338227  0.27022006  0.31094671    -0.15600
F863        F  0.11372258  0.23508500  0.18464706    -0.15600
F864        F  0.11158852  0.18976080  0.22972921    -0.13300
C865        C  0.01754525  0.34439477  0.11760666     0.24700
C866        C  0.03454161  0.35576992  0.14425636    -0.23400
C867        C  0.01723232  0.36825146  0.17025016     0.19600
C868        C  0.98401621  0.36834698  0.17006734     0.24700
C869        C  0.96694676  0.35582132  0.14394991    -0.23300
C870        C  0.98420922  0.34436180  0.11748002     0.19600
F871        F  0.96892901  0.33256370  0.09151550    -0.13300
F872        F  0.03308772  0.33275533  0.09170855    -0.15600
F873        F  0.96873579  0.37936706  0.19641255    -0.15600
F874        F  0.03226068  0.37905325  0.19681696    -0.13300
C875        C  0.98325547  0.12287291  0.33571452     0.24700
C876        C  0.96602327  0.14670243  0.35198521    -0.23400
C877        C  0.98291830  0.16871636  0.37093404     0.19600
C878        C  0.01608965  0.16838262  0.37176139     0.24700
C879        C  0.03345250  0.14613171  0.35353266    -0.23300
C880        C  0.01652805  0.12260380  0.33644441     0.19600
F881        F  0.03203037  0.09978257  0.31949761    -0.13300
F882        F  0.96806782  0.10017277  0.31831632    -0.15600
F883        F  0.03105012  0.19110008  0.38931487    -0.15600
F884        F  0.96757897  0.19183642  0.38760584    -0.13300
C885        C  0.88317066  0.25907868  0.27757025     0.24700
C886        C  0.87727680  0.22698202  0.26942649    -0.23400
C887        C  0.87187326  0.21928504  0.23712519     0.19600
C888        C  0.87203654  0.24298295  0.21376169     0.24700
C889        C  0.87771254  0.27504866  0.22193134    -0.23300
C890        C  0.88340053  0.28276916  0.25414549     0.19600
F891        F  0.88927739  0.31331802  0.26319685    -0.13300
F892        F  0.88868460  0.26781353  0.30826342    -0.15600
F893        F  0.86550366  0.23446736  0.18321942    -0.15600
F894        F  0.86552533  0.18887343  0.22794923    -0.13300
C895        C  0.51720270  0.38211943  0.33987038     0.24700
C896        C  0.53418570  0.35740986  0.35499821    -0.23400
C897        C  0.51691464  0.33412991  0.37203555     0.19600
C898        C  0.48368813  0.33383703  0.37146047     0.24700
C899        C  0.46666369  0.35705086  0.35414352    -0.23300
C900        C  0.48386201  0.38196154  0.33947141     0.19600
F901        F  0.46852303  0.40593442  0.32408735    -0.13300
F902        F  0.53278828  0.40623489  0.32488835    -0.15600
F903        F  0.46840925  0.30958285  0.38653815    -0.15600
F904        F  0.53203258  0.31034109  0.38792060    -0.13300
C905        C  0.71677385  0.24021297  0.37227922     0.24700
C906        C  0.72486427  0.27281484  0.37502449    -0.23400
C907        C  0.75724262  0.28086832  0.37875456     0.19600
C908        C  0.78076480  0.25729734  0.37883734     0.24700
C909        C  0.77279040  0.22478782  0.37523115    -0.23300
C910        C  0.74035985  0.21658712  0.37241140     0.19600
F911        F  0.73125762  0.18569446  0.36894042    -0.13300
F912        F  0.68599941  0.23092594  0.36889671    -0.15600
F913        F  0.81151870  0.26664945  0.38225510    -0.15600
F914        F  0.76654757  0.31173055  0.38191566    -0.13300
C915        C  0.75845400  0.37546767  0.27777582     0.24700
C916        C  0.72589630  0.37775146  0.26990274    -0.23400
C917        C  0.71736981  0.37991965  0.23746488     0.19600
C918        C  0.74069788  0.37992592  0.21366205     0.24700
C919        C  0.77321638  0.37764078  0.22159305    -0.23300
C920        C  0.78169248  0.37523560  0.25401704     0.19600
F921        F  0.81253595  0.37180738  0.26303376    -0.13300
F922        F  0.76816071  0.37305528  0.30857085    -0.15600
F923        F  0.73119771  0.38195847  0.18278899    -0.15600
F924        F  0.68638139  0.38149478  0.22847248    -0.13300
C925        C  0.51679157  0.12646311  0.16340351     0.24700
C926        C  0.53400536  0.14678464  0.14280881    -0.23400
C927        C  0.51685082  0.16594096  0.12121814     0.19600
C928        C  0.48358082  0.16624020  0.12154626     0.24700
C929        C  0.46637754  0.14731473  0.14343426    -0.23300
C930        C  0.48351747  0.12666329  0.16364618     0.19600
F931        F  0.46827445  0.10730710  0.18467067    -0.13300
F932        F  0.53197909  0.10720436  0.18450442    -0.15600
F933        F  0.46839503  0.18600565  0.10092452    -0.15600
F934        F  0.53214015  0.18525755  0.10019672    -0.13300
C935        C  0.75943744  0.21894545  0.12702182     0.24700
C936        C  0.72787138  0.22620908  0.11820875    -0.23400
C937        C  0.72082270  0.25753179  0.10827069     0.19600
C938        C  0.74449795  0.28100596  0.10770698     0.24700
C939        C  0.77591909  0.27382891  0.11702679    -0.23300
C940        C  0.78306456  0.24236868  0.12641266     0.19600
F941        F  0.81278380  0.23422599  0.13610890    -0.13300
F942        F  0.76756739  0.18930481  0.13721065    -0.15600
F943        F  0.73644337  0.31082628  0.09801920    -0.15600
F944        F  0.69095444  0.26569082  0.09905846    -0.13300
C945        C  0.71769683  0.12118307  0.25601739     0.24700
C946        C  0.72552389  0.12332737  0.22340135    -0.23400
C947        C  0.75790381  0.12505760  0.21471379     0.19600
C948        C  0.78172396  0.12446208  0.23788915     0.24700
C949        C  0.77394832  0.12208677  0.27051926    -0.23300
C950        C  0.74153059  0.12046009  0.27921893     0.19600
F951        F  0.73256399  0.11855513  0.31028474    -0.13300
F952        F  0.68689044  0.11999610  0.26576241    -0.15600
F953        F  0.81243473  0.12705260  0.22811738    -0.15600
F954        F  0.76679508  0.12832092  0.18374002    -0.13300
C955        C  0.61787320  0.22093302  0.25423467     0.24700
C956        C  0.62117256  0.22906235  0.22176281    -0.23400
C957        C  0.62321483  0.26165108  0.21356576     0.19600
C958        C  0.62270799  0.28524972  0.23711778     0.24700
C959        C  0.62016337  0.27705168  0.26966869    -0.23300
C960        C  0.61739193  0.24452739  0.27778744     0.19600
F961        F  0.61483965  0.23517926  0.30868435    -0.13300
F962        F  0.61568321  0.19000645  0.26358569    -0.15600
F963        F  0.62533650  0.31616215  0.22777175    -0.15600
F964        F  0.62623889  0.27100300  0.18269787    -0.13300
C965        C  0.48564859  0.67289629  0.36995600     0.24700
C966        C  0.46829346  0.64925073  0.35355626    -0.23400
C967        C  0.48512393  0.62396508  0.33921330     0.19600
C968        C  0.51842638  0.62371924  0.33905728     0.24700
C969        C  0.53579089  0.64876947  0.35326281    -0.23300
C970        C  0.51886193  0.67269618  0.36977174     0.19600
F971        F  0.53424120  0.69696831  0.38470268    -0.13300
F972        F  0.47067452  0.69736816  0.38496355    -0.15600
F973        F  0.53352261  0.59923563  0.32422094    -0.15600
F974        F  0.46944148  0.59965475  0.32467752    -0.13300
C975        C  0.62490240  0.51852958  0.33391916     0.24700
C976        C  0.64657321  0.53545297  0.35321183    -0.23400
C977        C  0.66684683  0.51798110  0.37353716     0.19600
C978        C  0.66693557  0.48462893  0.37293684     0.24700
C979        C  0.64678181  0.46776785  0.35199471    -0.23300
C980        C  0.62504567  0.48523252  0.33326637     0.19600
F981        F  0.60461227  0.47030979  0.31310230    -0.13300
F982        F  0.60409754  0.53406055  0.31464183    -0.15600
F983        F  0.68752889  0.46900646  0.39236479    -0.15600
F984        F  0.68766714  0.53299400  0.39323867    -0.13300
C985        C  0.51899299  0.83445231  0.12207495     0.24700
C986        C  0.53591578  0.85499424  0.14266491    -0.23400
C987        C  0.51845250  0.87702052  0.16114291     0.19600
C988        C  0.48515984  0.87738017  0.16024130     0.24700
C989        C  0.46822135  0.85570848  0.14088196    -0.23300
C990        C  0.48571325  0.83484506  0.12115972     0.19600
F991        F  0.47075096  0.81367576  0.10177075    -0.13300
F992        F  0.53445368  0.81303193  0.10336650    -0.15600
F993        F  0.46960409  0.89862951  0.17906932    -0.15600
F994        F  0.53338524  0.89777272  0.18100326    -0.13300
C995        C  0.62334632  0.98471676  0.15915519     0.24700
C996        C  0.64500154  0.96778981  0.13977084    -0.23400
C997        C  0.66405967  0.98518899  0.11822317     0.19600
C998        C  0.66375277  0.01852699  0.11832608     0.24700
C999        C  0.64438648  0.03547377  0.14000683    -0.23300
C1000       C  0.62307909  0.01806981  0.15929418     0.19600
F1001       F  0.60249914  0.03317770  0.17917592    -0.13300
F1002       F  0.60301243  0.96916890  0.17898037    -0.15600
F1003       F  0.68362597  0.03401913  0.09798988    -0.15600
F1004       F  0.68412697  0.97014562  0.09776430    -0.13300
C1005       C  0.61996840  0.74366803  0.21588440     0.24700
C1006       C  0.62718399  0.77563567  0.22327614    -0.23400
C1007       C  0.63448769  0.78361201  0.25506936     0.19600
C1008       C  0.63425954  0.76035974  0.27887838     0.24700
C1009       C  0.62663834  0.72838790  0.27161086    -0.23300
C1010       C  0.61961830  0.72038256  0.23971225     0.19600
F1011       F  0.61238624  0.68995613  0.23129319    -0.13300
F1012       F  0.61297809  0.73475673  0.18555196    -0.15600
F1013       F  0.64225466  0.76930967  0.30895942    -0.15600
F1014       F  0.64281117  0.81384182  0.26320603    -0.13300
C1015       C  0.87102412  0.51750750  0.16713303     0.24700
C1016       C  0.85555755  0.53461037  0.14272208    -0.23400
C1017       C  0.84096565  0.51750555  0.11778744     0.19600
C1018       C  0.84083023  0.48412492  0.11791935     0.24700
C1019       C  0.85515313  0.46710231  0.14306852    -0.23300
C1020       C  0.87080357  0.48428105  0.16731635     0.19600
F1021       F  0.88447380  0.46911313  0.19242981    -0.13300
F1022       F  0.88489586  0.53278660  0.19209129    -0.15600
F1023       F  0.82623176  0.46854577  0.09359575    -0.15600
F1024       F  0.82634374  0.53300424  0.09344719    -0.13300
C1025       C  0.98535104  0.66251550  0.11905048     0.24700
C1026       C  0.96785374  0.64511044  0.14192484    -0.23400
C1027       C  0.98481489  0.62595497  0.16374444     0.19600
C1028       C  0.01810985  0.62621579  0.16433788     0.24700
C1029       C  0.03557766  0.64560073  0.14310214    -0.23300
C1030       C  0.01867454  0.66275947  0.11963268     0.19600
F1031       F  0.03423155  0.68062407  0.09754950    -0.13300
F1032       F  0.97036961  0.68027401  0.09653817    -0.15600
F1033       F  0.03304337  0.60823212  0.18669857    -0.15600
F1034       F  0.96932863  0.60760362  0.18547447    -0.13300
C1035       C  0.78112749  0.61221716  0.25281609     0.24700
C1036       C  0.77377743  0.62160077  0.22135226    -0.23400
C1037       C  0.74206160  0.62994209  0.21425179     0.19600
C1038       C  0.71873724  0.63004372  0.23801985     0.24700
C1039       C  0.72627890  0.62166505  0.26969759    -0.23300
C1040       C  0.75770306  0.61217967  0.27661338     0.19600
F1041       F  0.76598020  0.60281005  0.30647165    -0.13300
F1042       F  0.81105961  0.60306694  0.26080949    -0.15600
F1043       F  0.68888402  0.63939042  0.22992303    -0.15600
F1044       F  0.73347768  0.63898671  0.18438872    -0.13300
C1045       C  0.74503213  0.72072338  0.12576766     0.24700
C1046       C  0.77682381  0.72822448  0.11815611    -0.23400
C1047       C  0.78444608  0.75995653  0.11007002     0.19600
C1048       C  0.76093580  0.78360480  0.10996305     0.24700
C1049       C  0.72922657  0.77613448  0.11802574    -0.23300
C1050       C  0.72157650  0.74429001  0.12563382     0.19600
F1051       F  0.69152226  0.73593123  0.13417406    -0.13300
F1052       F  0.73664686  0.69072004  0.13463410    -0.15600
F1053       F  0.76930078  0.81379852  0.10173742    -0.15600
F1054       F  0.81465901  0.76820912  0.10203525    -0.13300
C1055       C  0.98616337  0.83682444  0.37097050     0.24700
C1056       C  0.96885499  0.85551792  0.34909564    -0.23400
C1057       C  0.98568996  0.87644863  0.32885642     0.19600
C1058       C  0.01888224  0.87724263  0.32915324     0.24700
C1059       C  0.03623847  0.85715586  0.34972569    -0.23300
C1060       C  0.01934770  0.83768965  0.37133340     0.19600
F1061       F  0.03479120  0.81848640  0.39229739    -0.13300
F1062       F  0.97119176  0.81677268  0.39153703    -0.15600
F1063       F  0.03385634  0.89696846  0.30827761    -0.15600
F1064       F  0.97025198  0.89548500  0.30773474    -0.13300
C1065       C  0.84887595  0.98370012  0.37687598     0.24700
C1066       C  0.86172114  0.96657484  0.35095312    -0.23400
C1067       C  0.87720441  0.98374316  0.32651892     0.19600
C1068       C  0.87670630  0.01702270  0.32622423     0.24700
C1069       C  0.86073966  0.03412275  0.35036669    -0.23300
C1070       C  0.84833832  0.01709554  0.37654515     0.19600
F1071       F  0.83507724  0.03268129  0.40163057    -0.13300
F1072       F  0.83610305  0.96822521  0.40229589    -0.15600
F1073       F  0.89039871  0.03225988  0.30113047    -0.15600
F1074       F  0.89146763  0.96851553  0.30174783    -0.13300
C1075       C  0.78516949  0.74291320  0.37246275     0.24700
C1076       C  0.77690407  0.77536258  0.37581007    -0.23400
C1077       C  0.74454373  0.78328513  0.37957027     0.19600
C1078       C  0.72113827  0.75956160  0.37958662     0.24700
C1079       C  0.72937679  0.72713544  0.37585301    -0.23300
C1080       C  0.76180080  0.71920531  0.37248907     0.19600
F1081       F  0.77118209  0.68846464  0.36853313    -0.13300
F1082       F  0.81590175  0.73385145  0.36825113    -0.15600
F1083       F  0.69030627  0.76867981  0.38279707    -0.15600
F1084       F  0.73524817  0.81410375  0.38303122    -0.13300
C1085       C  0.74426737  0.87369654  0.27887877     0.24700
C1086       C  0.77613277  0.88057962  0.27102372    -0.23400
C1087       C  0.78354742  0.88851690  0.23920637     0.19600
C1088       C  0.75986014  0.88897476  0.21578996     0.24700
C1089       C  0.72805071  0.88146295  0.22350973    -0.23300
C1090       C  0.72058798  0.87414550  0.25550104     0.19600
F1091       F  0.69047903  0.86628140  0.26425285    -0.13300
F1092       F  0.73598965  0.86524434  0.30903404    -0.15600
F1093       F  0.76831286  0.89668579  0.18548972    -0.15600
F1094       F  0.81382012  0.89589113  0.23054781    -0.13300
C1095       C  0.86843371  0.71843293  0.25466422     0.24700
C1096       C  0.87936454  0.72521661  0.22357812    -0.23400
C1097       C  0.89063197  0.75612239  0.21675406     0.19600
C1098       C  0.89057345  0.77971834  0.24025075     0.24700
C1099       C  0.87928188  0.77300627  0.27115980    -0.23300
C1100       C  0.86842517  0.74200431  0.27812202     0.19600
F1101       F  0.85666609  0.73458672  0.30738162    -0.13300
F1102       F  0.85668695  0.68922540  0.26234619    -0.15600
F1103       F  0.90183699  0.80912346  0.23266123    -0.15600
F1104       F  0.90185433  0.76368544  0.18733274    -0.13300
C1105       C  0.12633047  0.33807004  0.97962124     0.24700
C1106       C  0.14652826  0.35928891  0.96303578    -0.23400
C1107       C  0.16446965  0.38143007  0.98083785     0.19600
C1108       C  0.16402415  0.38082473  0.01414987     0.24700
C1109       C  0.14573434  0.35794608  0.03073094    -0.23300
C1110       C  0.12601088  0.33735375  0.01295423     0.19600
F1111       F  0.10708768  0.31555546  0.02763227    -0.13300
F1112       F  0.10760466  0.31696224  0.96375865    -0.15600
F1113       F  0.18265593  0.40203394  0.02998389    -0.15600
F1114       F  0.18358484  0.40307965  0.96619636    -0.13300
C1115       C  0.38108037  0.16650238  0.98171522     0.24700
C1116       C  0.36187674  0.14549210  0.96392012    -0.23400
C1117       C  0.34446442  0.12185114  0.98037527     0.19600
C1118       C  0.34333910  0.12171169  0.01371473     0.24700
C1119       C  0.35989831  0.14498055  0.03142199    -0.23300
C1120       C  0.38014325  0.16623054  0.01495786     0.19600
F1121       F  0.39798342  0.18812159  0.03078400    -0.13300
F1122       F  0.39964260  0.18867999  0.96714776    -0.15600
F1123       F  0.32497524  0.09947140  0.02844180    -0.15600
F1124       F  0.32743318  0.09947389  0.96432939    -0.13300
C1125       C  0.24585793  0.22291931  0.87895658     0.24700
C1126       C  0.27835680  0.23126841  0.88074102    -0.23400
C1127       C  0.28637499  0.26384806  0.88305367     0.19600
C1128       C  0.26277740  0.28737908  0.88189117     0.24700
C1129       C  0.23038366  0.27903394  0.87865399    -0.23300
C1130       C  0.22230356  0.24638435  0.87793447     0.19600
F1131       F  0.19151983  0.23680253  0.87555682    -0.13300
F1132       F  0.23653705  0.19193400  0.87733435    -0.15600
F1133       F  0.27197629  0.31839853  0.88334997    -0.15600
F1134       F  0.31717060  0.27322623  0.88595321    -0.13300
C1135       C  0.34434028  0.38367542  0.48065347     0.24700
C1136       C  0.35576957  0.35724270  0.46331745    -0.23400
C1137       C  0.36932401  0.33157837  0.48029155     0.19600
C1138       C  0.36989949  0.33155196  0.51352630     0.24700
C1139       C  0.35688333  0.35712393  0.53094421    -0.23300
C1140       C  0.34476423  0.38355306  0.51408469     0.19600
F1141       F  0.33293662  0.40921627  0.52988880    -0.13300
F1142       F  0.33237194  0.40956671  0.46536890    -0.15600
F1143       F  0.38172537  0.30542086  0.52852855    -0.15600
F1144       F  0.38073170  0.30544947  0.46493323    -0.13300
C1145       C  0.38321335  0.28817113  0.75721682     0.24700
C1146       C  0.38270366  0.27974081  0.72463075    -0.23400
C1147       C  0.38235781  0.24709591  0.71655064     0.19600
C1148       C  0.38176935  0.22367698  0.74018998     0.24700
C1149       C  0.38172268  0.23205117  0.77277634    -0.23300
C1150       C  0.38281114  0.26468406  0.78092286     0.19600
F1151       F  0.38301068  0.27417876  0.81188898    -0.13300
F1152       F  0.38354083  0.31921963  0.76645038    -0.15600
F1153       F  0.38076356  0.19268836  0.73080830    -0.15600
F1154       F  0.38208628  0.23746184  0.68563124    -0.13300
C1155       C  0.26378461  0.39158600  0.78022324     0.24700
C1156       C  0.23170652  0.38567471  0.77229273    -0.23400
C1157       C  0.22384651  0.38077847  0.73998819     0.19600
C1158       C  0.24734083  0.38093786  0.71645906     0.24700
C1159       C  0.27952905  0.38612480  0.72438208    -0.23300
C1160       C  0.28737465  0.39183933  0.75658586     0.19600
F1161       F  0.31792881  0.39755784  0.76543055    -0.13300
F1162       F  0.27253126  0.39710243  0.81090135    -0.15600
F1163       F  0.23839774  0.37481698  0.68594837    -0.15600
F1164       F  0.19342926  0.37466314  0.73095929    -0.13300
C1165       C  0.12335321  0.16363631  0.51462235     0.24700
C1166       C  0.14819350  0.14852140  0.53143321    -0.23400
C1167       C  0.17123187  0.13145451  0.51397839     0.19600
C1168       C  0.17075271  0.13137729  0.48071172     0.24700
C1169       C  0.14713615  0.14827490  0.46382168    -0.23300
C1170       C  0.12289813  0.16361082  0.48127987     0.19600
F1171       F  0.09906227  0.17943372  0.46623353    -0.13300
F1172       F  0.09975161  0.17925168  0.53030200    -0.15600
F1173       F  0.19455110  0.11587967  0.46522058    -0.15600
F1174       F  0.19531593  0.11587562  0.52888596    -0.13300
C1175       C  0.14049221  0.28596684  0.73876783     0.24700
C1176       C  0.12743212  0.28031307  0.76916056    -0.23400
C1177       C  0.11286875  0.25069070  0.77538964     0.19600
C1178       C  0.11177809  0.22709893  0.75188699     0.24700
C1179       C  0.12513308  0.23265249  0.72161489    -0.23300
C1180       C  0.13931288  0.26245494  0.71526250     0.19600
F1181       F  0.15328195  0.26853792  0.68666766    -0.13300
F1182       F  0.15555198  0.31383945  0.73202957    -0.15600
F1183       F  0.09735567  0.19892284  0.75874277    -0.15600
F1184       F  0.09927886  0.24459688  0.80414538    -0.13300
C1185       C  0.21963177  0.12843565  0.75779181     0.24700
C1186       C  0.22782582  0.12824127  0.72515471    -0.23400
C1187       C  0.26034854  0.12807324  0.71682275     0.19600
C1188       C  0.28388437  0.12838682  0.74029009     0.24700
C1189       C  0.27573417  0.12894578  0.77292247    -0.23300
C1190       C  0.24321279  0.12885881  0.78130532     0.19600
F1191       F  0.23391784  0.12952654  0.81232594    -0.13300
F1192       F  0.18872174  0.12853246  0.76725875    -0.15600
F1193       F  0.31476015  0.12858638  0.73070853    -0.15600
F1194       F  0.26974977  0.12813611  0.68582914    -0.13300
C1195       C  0.26072529  0.22401576  0.62989417     0.24700
C1196       C  0.22918614  0.23129097  0.62106562    -0.23400
C1197       C  0.22169462  0.26311379  0.61314776     0.19600
C1198       C  0.24509501  0.28688301  0.61389104     0.24700
C1199       C  0.27663770  0.27949528  0.62251590    -0.23300
C1200       C  0.28404709  0.24773860  0.63064373     0.19600
F1201       F  0.31378283  0.23954601  0.64028590    -0.13300
F1202       F  0.26910485  0.19401761  0.63874951    -0.15600
F1203       F  0.23675915  0.31710908  0.60583863    -0.15600
F1204       F  0.19169442  0.27144247  0.60453084    -0.13300
C1205       C  0.34421774  0.52152459  0.61662573     0.24700
C1206       C  0.36150023  0.53878244  0.63973439    -0.23400
C1207       C  0.38157930  0.52178120  0.66060237     0.19600
C1208       C  0.38190353  0.48849211  0.66050626     0.24700
C1209       C  0.36211746  0.47117834  0.63956781    -0.23300
C1210       C  0.34454327  0.48817274  0.61653425     0.19600
F1211       F  0.32659282  0.47267469  0.59451245    -0.13300
F1212       F  0.32584246  0.53671130  0.59477061    -0.15600
F1213       F  0.40067410  0.47340535  0.68209616    -0.15600
F1214       F  0.40012235  0.53716567  0.68221028    -0.13300
C1215       C  0.37957254  0.66697305  0.51283666     0.24700
C1216       C  0.35677015  0.64956396  0.53037987    -0.23400
C1217       C  0.33484836  0.63047689  0.51347046     0.19600
C1218       C  0.33435108  0.63050351  0.48013234     0.24700
C1219       C  0.35581242  0.64954281  0.46260546    -0.23300
C1220       C  0.37914106  0.66691061  0.47947661     0.19600
F1221       F  0.40127646  0.68462784  0.46384797    -0.13300
F1222       F  0.40184308  0.68506389  0.52779116    -0.15600
F1223       F  0.31190984  0.61260994  0.46520235    -0.15600
F1224       F  0.31303116  0.61232170  0.52904103    -0.13300
C1225       C  0.12849130  0.52203167  0.83199577     0.24700
C1226       C  0.14795248  0.53898557  0.85352509    -0.23400
C1227       C  0.16541984  0.52160505  0.87635989     0.19600
C1228       C  0.16534283  0.48826857  0.87603870     0.24700
C1229       C  0.14773600  0.47135433  0.85294985    -0.23300
C1230       C  0.12837254  0.48873944  0.83171572     0.19600
F1231       F  0.11029572  0.47374334  0.80944834    -0.13300
F1232       F  0.11030692  0.53749843  0.81016610    -0.15600
F1233       F  0.18347712  0.47269713  0.89782724    -0.15600
F1234       F  0.18377788  0.53667339  0.89833759    -0.13300
C1235       C  0.12768958  0.67255715  0.98085260     0.24700
C1236       C  0.14651318  0.65080915  0.96350055    -0.23400
C1237       C  0.16344118  0.62722302  0.98033860     0.19600
C1238       C  0.16302065  0.62651164  0.01361976     0.24700
C1239       C  0.14581516  0.64951426  0.03106479    -0.23300
C1240       C  0.12736258  0.67194738  0.01416134     0.19600
F1241       F  0.11001653  0.69443967  0.02968821    -0.13300
F1242       F  0.11078011  0.69566986  0.96580267    -0.15600
F1243       F  0.18037326  0.60370752  0.02862721    -0.15600
F1244       F  0.18116919  0.60510642  0.96471539    -0.13300
C1245       C  0.26319043  0.62085719  0.78070219     0.24700
C1246       C  0.23081857  0.62349769  0.77214583    -0.23400
C1247       C  0.22301623  0.62442762  0.73945778     0.19600
C1248       C  0.24676771  0.62436705  0.71615718     0.24700
C1249       C  0.27919355  0.62315407  0.72467387    -0.23300
C1250       C  0.28703257  0.62074388  0.75729688     0.19600
F1251       F  0.31783716  0.61856650  0.76679270    -0.13300
F1252       F  0.27207275  0.61901236  0.81177881    -0.15600
F1253       F  0.23771119  0.62655232  0.68515974    -0.15600
F1254       F  0.19225712  0.62590694  0.72968286    -0.13300
C1255       C  0.38206435  0.98833209  0.83826254     0.24700
C1256       C  0.35708378  0.97120755  0.85279728    -0.23400
C1257       C  0.33290344  0.98830352  0.86856526     0.19600
C1258       C  0.33255603  0.02152276  0.86802833     0.24700
C1259       C  0.35649118  0.03872250  0.85186037    -0.23300
C1260       C  0.38173298  0.02169510  0.83771490     0.19600
F1261       F  0.40587551  0.03718051  0.82272076    -0.13300
F1262       F  0.40661842  0.97286034  0.82397756    -0.15600
F1263       F  0.30761490  0.03662020  0.88204519    -0.15600
F1264       F  0.30835783  0.97303230  0.88313304    -0.13300
C1265       C  0.34464178  0.88395066  0.97870644     0.24700
C1266       C  0.36037387  0.85960021  0.96174946    -0.23400
C1267       C  0.37723527  0.83628032  0.97896067     0.19600
C1268       C  0.37632397  0.83581919  0.01215980     0.24700
C1269       C  0.35843829  0.85864670  0.02919081    -0.23300
C1270       C  0.34367945  0.88349833  0.01204015     0.19600
F1271       F  0.32741172  0.90694782  0.02730744    -0.13300
F1272       F  0.32940161  0.90784491  0.96308757    -0.15600
F1273       F  0.39189855  0.81188099  0.02736142    -0.15600
F1274       F  0.39317528  0.81252411  0.96380162    -0.13300
C1275       C  0.38197214  0.78787285  0.73697887     0.24700
C1276       C  0.37974802  0.77948949  0.76949036    -0.23400
C1277       C  0.37732217  0.74691147  0.77754895     0.19600
C1278       C  0.37744171  0.72347946  0.75393568     0.24700
C1279       C  0.37985641  0.73182017  0.72147090    -0.23300
C1280       C  0.38197745  0.76438000  0.71332078     0.19600
F1281       F  0.38400708  0.77375779  0.68238474    -0.13300
F1282       F  0.38380879  0.81887331  0.72776285    -0.15600
F1283       F  0.37433400  0.69256601  0.76311220    -0.15600
F1284       F  0.37426120  0.73738900  0.80835646    -0.13300
C1285       C  0.28676577  0.74577437  0.87488903     0.24700
C1286       C  0.27825409  0.77823180  0.87699591    -0.23400
C1287       C  0.24582132  0.78599740  0.88077848     0.19600
C1288       C  0.22253095  0.76216338  0.88106882     0.24700
C1289       C  0.23092279  0.72977320  0.87761962    -0.23300
C1290       C  0.26348739  0.72192457  0.87522390     0.19600
F1291       F  0.27309682  0.69111683  0.87259389    -0.13300
F1292       F  0.31764745  0.73685581  0.87158138    -0.15600
F1293       F  0.19164332  0.77114249  0.88415799    -0.15600
F1294       F  0.23632114  0.81678509  0.88396158    -0.13300
C1295       C  0.12499044  0.84474044  0.51331354     0.24700
C1296       C  0.14895852  0.86134909  0.52997752    -0.23400
C1297       C  0.17069186  0.87997516  0.51235783     0.19600
C1298       C  0.17033550  0.87959909  0.47905202     0.24700
C1299       C  0.14809772  0.86074153  0.46230776    -0.23300
C1300       C  0.12451996  0.84447813  0.47993978     0.19600
F1301       F  0.10141738  0.82740598  0.46506259    -0.13300
F1302       F  0.10227636  0.82803024  0.52921461    -0.15600
F1303       F  0.19283262  0.89681728  0.46338658    -0.15600
F1304       F  0.19349362  0.89752288  0.52715666    -0.13300
C1305       C  0.13162485  0.02125539  0.66686311     0.24700
C1306       C  0.14829843  0.03880477  0.64354067    -0.23400
C1307       C  0.16377211  0.02198234  0.61882968     0.19600
C1308       C  0.16407321  0.98859683  0.61854632     0.24700
C1309       C  0.14869697  0.97115252  0.64278447    -0.23300
C1310       C  0.13176476  0.98799076  0.66645010     0.19600
F1311       F  0.11661819  0.97243270  0.69048835    -0.13300
F1312       F  0.11630936  0.03607474  0.69123935    -0.15600
F1313       F  0.18001341  0.97344868  0.59478456    -0.15600
F1314       F  0.17935860  0.03770052  0.59519157    -0.13300
C1315       C  0.26218819  0.78557583  0.62272217     0.24700
C1316       C  0.22979377  0.77791881  0.61864612    -0.23400
C1317       C  0.22120276  0.74554023  0.61513876     0.19600
C1318       C  0.24428442  0.72158507  0.61583847     0.24700
C1319       C  0.27663625  0.72927594  0.61987855    -0.23300
C1320       C  0.28526261  0.76160942  0.62333629     0.19600
F1321       F  0.31600916  0.77019024  0.62845169    -0.13300
F1322       F  0.27168993  0.81622167  0.62717711    -0.15600
F1323       F  0.23476993  0.69080711  0.61242876    -0.15600
F1324       F  0.19035694  0.73676909  0.61107678    -0.13300
C1325       C  0.13478419  0.78725617  0.75503323     0.24700
C1326       C  0.12702331  0.77938368  0.72325534    -0.23400
C1327       C  0.11902111  0.74751846  0.71612412     0.19600
C1328       C  0.11908047  0.72419118  0.73998629     0.24700
C1329       C  0.12737388  0.73200252  0.77164258    -0.23300
C1330       C  0.13494193  0.76396900  0.77881648     0.19600
F1331       F  0.14329667  0.77289401  0.80880371    -0.13300
F1332       F  0.14315036  0.81745278  0.76327042    -0.15600
F1333       F  0.11097261  0.69390315  0.73185914    -0.15600
F1334       F  0.11112514  0.73867615  0.68599837    -0.13300
C1335       C  0.22205241  0.88720364  0.75424383     0.21500
C1336       C  0.23050736  0.88442515  0.72179400    -0.23400
C1337       C  0.26304110  0.88270113  0.71376826     0.19600
C1338       C  0.28631849  0.88267712  0.73744930     0.24700
C1339       C  0.27784961  0.88446443  0.76995771    -0.23300
C1340       C  0.24537329  0.88719135  0.77796908     0.19600
F1341       F  0.23584735  0.88937494  0.80884893    -0.13300
F1342       F  0.19111779  0.88942634  0.76336088    -0.15600
F1343       F  0.31720790  0.88020606  0.72823737    -0.15600
F1344       F  0.27266808  0.88046489  0.68292232    -0.13300
C1345       C  0.52100154  0.38080350  0.65781388     0.24700
C1346       C  0.53766937  0.35798180  0.63964153    -0.23400
C1347       C  0.52018108  0.33790443  0.61912384     0.19600
C1348       C  0.48690394  0.33860387  0.61906665     0.24700
C1349       C  0.47016576  0.35941546  0.63952949    -0.23300
C1350       C  0.48775359  0.38157192  0.65770238     0.19600
F1351       F  0.47293077  0.40351050  0.67632706    -0.13300
F1352       F  0.53675691  0.40210460  0.67641636    -0.15600
F1353       F  0.47123843  0.31789071  0.59973486    -0.15600
F1354       F  0.53506612  0.31642348  0.60001577    -0.13300
C1355       C  0.62369289  0.34318003  0.51310279     0.24700
C1356       C  0.64786275  0.35943365  0.52975590    -0.23400
C1357       C  0.67041507  0.37713656  0.51226979     0.19600
C1358       C  0.67021084  0.37670075  0.47902518     0.24700
C1359       C  0.64739420  0.35857436  0.46229613    -0.23300
C1360       C  0.62340599  0.34282820  0.47975225     0.19600
F1361       F  0.59991859  0.32650638  0.46464328    -0.13300
F1362       F  0.60056862  0.32707819  0.52902880    -0.15600
F1363       F  0.69362655  0.39272604  0.46343035    -0.15600
F1364       F  0.69405146  0.39345069  0.52717816    -0.13300
C1365       C  0.48674883  0.13439638  0.82480851     0.24700
C1366       C  0.46982084  0.14870750  0.85008945    -0.23400
C1367       C  0.48714835  0.16122003  0.87600359     0.19600
C1368       C  0.52048527  0.16109447  0.87574475     0.24700
C1369       C  0.53736281  0.14836473  0.84959950    -0.23300
C1370       C  0.51997296  0.13416357  0.82460615     0.19600
F1371       F  0.53495580  0.12145005  0.79886740    -0.13300
F1372       F  0.47132693  0.12203819  0.79917122    -0.15600
F1373       F  0.53615698  0.17394406  0.90097587    -0.15600
F1374       F  0.47191352  0.17410084  0.90150103    -0.13300
C1375       C  0.66721703  0.12677963  0.98014641     0.24700
C1376       C  0.64725209  0.14754990  0.96285687    -0.23400
C1377       C  0.62533727  0.16650071  0.97986103     0.19600
C1378       C  0.62477206  0.16618868  0.01314726     0.24700
C1379       C  0.64617607  0.14700092  0.03047097    -0.23300
C1380       C  0.66673464  0.12656056  0.01344749     0.19600
F1381       F  0.68734854  0.10697025  0.02885903    -0.13300
F1382       F  0.68825287  0.10736220  0.96504884    -0.15600
F1383       F  0.60403585  0.18589762  0.02825228    -0.15600
F1384       F  0.60508513  0.18646883  0.96448265    -0.13300
C1385       C  0.61809008  0.26189987  0.77806090     0.24700
C1386       C  0.62701100  0.23032632  0.77053609    -0.23400
C1387       C  0.63571105  0.22322158  0.73883629     0.19600
C1388       C  0.63545510  0.24687008  0.71538278     0.24700
C1389       C  0.62676661  0.27837321  0.72293019    -0.23300
C1390       C  0.61806263  0.28563216  0.75455378     0.19600
F1391       F  0.60913699  0.31566797  0.76275815    -0.13300
F1392       F  0.60919045  0.26996134  0.80814414    -0.15600
F1393       F  0.64500198  0.23905722  0.68543684    -0.15600
F1394       F  0.64560044  0.19354342  0.73050942    -0.13300
C1395       C  0.02065634  0.33566221  0.86815157     0.24700
C1396       C  0.03779600  0.35767179  0.84934052    -0.23400
C1397       C  0.02051772  0.38044322  0.83165347     0.19600
C1398       C  0.98717840  0.38017424  0.83159566     0.24700
C1399       C  0.97010098  0.35707238  0.84916882    -0.23300
C1400       C  0.98741459  0.33539183  0.86809320     0.19600
F1401       F  0.97236327  0.31282152  0.88577707    -0.13300
F1402       F  0.03589831  0.31323198  0.88578385    -0.15600
F1403       F  0.97177618  0.40220262  0.81358115    -0.15600
F1404       F  0.03573786  0.40268833  0.81369066    -0.13300
C1405       C  0.83333591  0.37579505  0.97842700     0.24700
C1406       C  0.85593343  0.35762021  0.96137262    -0.23400
C1407       C  0.87897515  0.34054311  0.97885634     0.19600
C1408       C  0.87852399  0.34042736  0.01223115     0.24700
C1409       C  0.85505327  0.35741299  0.02923924    -0.23300
C1410       C  0.83295273  0.37574456  0.01179437     0.19600
F1411       F  0.80980728  0.39262971  0.02682902    -0.13300
F1412       F  0.81052472  0.39273768  0.96299843    -0.15600
F1413       F  0.90079135  0.32289019  0.02777032    -0.15600
F1414       F  0.90157842  0.32297572  0.96380272    -0.13300
C1415       C  0.74648669  0.38885970  0.77490302     0.24700
C1416       C  0.77857445  0.38304480  0.76689147    -0.23400
C1417       C  0.78660083  0.37950709  0.73441223     0.19600
C1418       C  0.76313183  0.38046817  0.71086304     0.24700
C1419       C  0.73081823  0.38458571  0.71906944    -0.23300
C1420       C  0.72299674  0.38971511  0.75134836     0.19600
F1421       F  0.69246221  0.39510778  0.76047381    -0.13300
F1422       F  0.73746930  0.39336340  0.80567222    -0.15600
F1423       F  0.77229023  0.37676197  0.68000765    -0.15600
F1424       F  0.81713131  0.37425468  0.72517335    -0.13300
C1425       C  0.74518585  0.28502915  0.88044783     0.24700
C1426       C  0.77725771  0.27690898  0.87486124    -0.23400
C1427       C  0.78529345  0.24448699  0.87137215     0.19600
C1428       C  0.76181632  0.22097672  0.87214821     0.24700
C1429       C  0.72953778  0.22917147  0.87637216    -0.23300
C1430       C  0.72164153  0.26149271  0.88115463     0.19600
F1431       F  0.69106424  0.27060650  0.88630896    -0.13300
F1432       F  0.73636809  0.31582104  0.88521287    -0.15600
F1433       F  0.77090142  0.19020336  0.86778926    -0.15600
F1434       F  0.81584341  0.23530170  0.86617880    -0.13300
C1435       C  0.83610306  0.12519288  0.51272609     0.24700
C1436       C  0.85690527  0.14572049  0.52933564    -0.23400
C1437       C  0.87943206  0.16339493  0.51169932     0.19600
C1438       C  0.87937370  0.16253434  0.47838830     0.24700
C1439       C  0.85669729  0.14412587  0.46179918    -0.23300
C1440       C  0.83600546  0.12440532  0.47946475     0.19600
F1441       F  0.81442177  0.10531100  0.46474205    -0.13300
F1442       F  0.81472471  0.10665312  0.52845638    -0.15600
F1443       F  0.90103865  0.18059997  0.46248980    -0.15600
F1444       F  0.90096362  0.18251335  0.52646506    -0.13300
C1445       C  0.98633988  0.16944914  0.62005589     0.24700
C1446       C  0.96914960  0.14769144  0.63910066    -0.23400
C1447       C  0.98634130  0.12507747  0.65706530     0.19600
C1448       C  0.01960664  0.12575774  0.65781764     0.24700
C1449       C  0.03671031  0.14904434  0.64059291    -0.23300
C1450       C  0.01957346  0.17014913  0.62082693     0.19600
F1451       F  0.03473947  0.19258863  0.60306202    -0.13300
F1452       F  0.97114191  0.19119138  0.60153498    -0.15600
F1453       F  0.03486694  0.10411595  0.67640237    -0.15600
F1454       F  0.97109343  0.10280672  0.67496569    -0.13300
C1455       C  0.78433821  0.26164468  0.62441435     0.24700
C1456       C  0.77682898  0.22977065  0.61655263    -0.23400
C1457       C  0.74538423  0.22255098  0.60734211     0.19600
C1458       C  0.72191426  0.24623667  0.60706818     0.24700
C1459       C  0.72922984  0.27780570  0.61589682    -0.23300
C1460       C  0.76085991  0.28532973  0.62403414     0.19600
F1461       F  0.76891903  0.31539177  0.63303668    -0.13300
F1462       F  0.81418599  0.26986957  0.63370355    -0.15600
F1463       F  0.69197990  0.23823190  0.59787596    -0.15600
F1464       F  0.73722569  0.19253242  0.59834494    -0.13300
C1465       C  0.74644165  0.11516927  0.71582692     0.24700
C1466       C  0.77838165  0.12221383  0.72323055    -0.23400
C1467       C  0.78649663  0.12807733  0.75533208     0.19600
C1468       C  0.76307297  0.12852918  0.77902631     0.24700
C1469       C  0.73086161  0.12304370  0.77134579    -0.23300
C1470       C  0.72301027  0.11570479  0.73948984     0.19600
F1471       F  0.69255251  0.10908549  0.73096571    -0.13300
F1472       F  0.73763071  0.10773468  0.68556987    -0.15600
F1473       F  0.77204993  0.13541436  0.80936367    -0.15600
F1474       F  0.81701164  0.13439938  0.76391348    -0.13300
C1475       C  0.87939038  0.28375362  0.73673640     0.24700
C1476       C  0.88187082  0.27544234  0.76923782    -0.23400
C1477       C  0.88503008  0.24295320  0.77730034     0.19600
C1478       C  0.88512278  0.21947628  0.75360550     0.24700
C1479       C  0.88191241  0.22780852  0.72115996    -0.23300
C1480       C  0.87934811  0.26034331  0.71312236     0.19600
F1481       F  0.87606288  0.26983751  0.68233622    -0.13300
F1482       F  0.87618748  0.31461940  0.72746674    -0.15600
F1483       F  0.88800626  0.18853001  0.76272112    -0.15600
F1484       F  0.88780720  0.23361313  0.80817984    -0.13300
C1485       C  0.48727875  0.67468165  0.62487657     0.24700
C1486       C  0.47004983  0.65129299  0.64187350    -0.23400
C1487       C  0.48720358  0.62692862  0.65742052     0.19600
C1488       C  0.52050433  0.62707291  0.65757306     0.24700
C1489       C  0.53767023  0.65159963  0.64223385    -0.23300
C1490       C  0.52053380  0.67488648  0.62513949     0.19600
F1491       F  0.53577185  0.69890548  0.60965217    -0.13300
F1492       F  0.47212283  0.69833461  0.60882625    -0.15600
F1493       F  0.53581860  0.60335221  0.67337201    -0.15600
F1494       F  0.47190033  0.60317962  0.67325322    -0.13300
C1495       C  0.66342934  0.51983859  0.61900025     0.24700
C1496       C  0.64544666  0.53685673  0.64173344    -0.23400
C1497       C  0.62573405  0.51963470  0.66282947     0.19600
C1498       C  0.62577633  0.48632727  0.66266285     0.24700
C1499       C  0.64562167  0.46935888  0.64148363    -0.23300
C1500       C  0.66365626  0.48658413  0.61900986     0.19600
F1501       F  0.68243643  0.47138179  0.59747546    -0.13300
F1502       F  0.68184596  0.53522471  0.59725751    -0.15600
F1503       F  0.60759777  0.47088964  0.68457728    -0.15600
F1504       F  0.60745855  0.53480272  0.68483449    -0.13300
C1505       C  0.66281417  0.62287771  0.51336964     0.24700
C1506       C  0.64567484  0.64601644  0.53071708    -0.23400
C1507       C  0.62582467  0.66719357  0.51381739     0.19600
C1508       C  0.62570180  0.66740950  0.48053292     0.24700
C1509       C  0.64523455  0.64627311  0.46316750    -0.23300
C1510       C  0.66253448  0.62297701  0.48003882     0.19600
F1511       F  0.68006189  0.60071970  0.46439549    -0.13300
F1512       F  0.68088988  0.60071216  0.52846896    -0.15600
F1513       F  0.60754016  0.68957956  0.46553193    -0.15600
F1514       F  0.60743083  0.68886797  0.52930076    -0.13300
C1515       C  0.88036736  0.51857007  0.82920215     0.24700
C1516       C  0.86062071  0.53568143  0.85036807    -0.23400
C1517       C  0.84264381  0.51848818  0.87297390     0.19600
C1518       C  0.84227526  0.48519797  0.87261024     0.24700
C1519       C  0.86011059  0.46812967  0.84981219    -0.23300
C1520       C  0.88017901  0.48528533  0.82899072     0.19600
F1521       F  0.89876060  0.47007201  0.80727346    -0.13300
F1522       F  0.89896425  0.53383526  0.80752281    -0.15600
F1523       F  0.82339115  0.46987372  0.89399020    -0.15600
F1524       F  0.82435318  0.53373913  0.89488843    -0.13300
C1525       C  0.98718371  0.66654347  0.87220316     0.24700
C1526       C  0.97025611  0.64886269  0.84913806    -0.23400
C1527       C  0.98778106  0.63063455  0.82692361     0.19600
C1528       C  0.02104357  0.63112694  0.82695071     0.24700
C1529       C  0.03793401  0.64997846  0.84906553    -0.23300
C1530       C  0.02050311  0.66712685  0.87213069     0.19600
F1531       F  0.03558752  0.68505313  0.89446449    -0.13300
F1532       F  0.97162356  0.68406632  0.89453150    -0.15600
F1533       F  0.03654242  0.61413350  0.80415879    -0.15600
F1534       F  0.97291913  0.61321483  0.80403760    -0.13300
C1535       C  0.87916408  0.66501743  0.97939341     0.24700
C1536       C  0.85756299  0.64616046  0.96187122    -0.23400
C1537       C  0.83699466  0.62559411  0.97881921     0.19600
C1538       C  0.83643600  0.62563976  0.01216666     0.24700
C1539       C  0.85659266  0.64606769  0.02967694    -0.23300
C1540       C  0.87865568  0.66500931  0.01276032     0.19600
F1541       F  0.89934652  0.68439647  0.02835139    -0.13300
F1542       F  0.90032687  0.68437951  0.96438855    -0.15600
F1543       F  0.81500949  0.60650925  0.02710697    -0.15600
F1544       F  0.81635830  0.60608073  0.96329786    -0.13300
C1545       C  0.78528710  0.61513282  0.73708113     0.24700
C1546       C  0.77785768  0.62226282  0.76907539    -0.23400
C1547       C  0.74595513  0.62888090  0.77711180     0.19600
C1548       C  0.72231518  0.62904101  0.75381446     0.24700
C1549       C  0.72978112  0.62254153  0.72171429    -0.23300
C1550       C  0.76154959  0.61520104  0.71371478     0.19600
F1551       F  0.76985645  0.60810312  0.68322532    -0.13300
F1552       F  0.81556411  0.60812472  0.72818890    -0.15600
F1553       F  0.69222485  0.63672096  0.76279881    -0.15600
F1554       F  0.73749159  0.63635010  0.80745652    -0.13300
C1555       C  0.48773443  0.87737488  0.82549279     0.24700
C1556       C  0.47025581  0.86084574  0.84897651    -0.23400
C1557       C  0.48705611  0.84587796  0.87389764     0.19600
C1558       C  0.52039345  0.84572429  0.87421630     0.24700
C1559       C  0.53790195  0.86041264  0.84951462    -0.23300
C1560       C  0.52100800  0.87716882  0.82574695     0.19600
F1561       F  0.53649178  0.89228683  0.80165195    -0.13300
F1562       F  0.47278405  0.89248919  0.80110000    -0.15600
F1563       F  0.53540552  0.83052632  0.89850313    -0.15600
F1564       F  0.47128956  0.83083135  0.89785208    -0.13300
C1565       C  0.66724685  0.98691690  0.87494542     0.24700
C1566       C  0.64864528  0.96947903  0.85307408    -0.23400
C1567       C  0.62759248  0.98641941  0.83305557     0.19600
C1568       C  0.62727842  0.01974414  0.83289405     0.24700
C1569       C  0.64792975  0.03720441  0.85278341    -0.23300
C1570       C  0.66688243  0.02028325  0.87482865     0.19600
F1571       F  0.68610546  0.03585195  0.89569654    -0.13300
F1572       F  0.68676874  0.97186871  0.89587726    -0.15600
F1573       F  0.60746995  0.03473922  0.81219474    -0.15600
F1574       F  0.60796942  0.97093465  0.81251073    -0.13300
C1575       C  0.66582693  0.87943539  0.98068394     0.24700
C1576       C  0.64773453  0.85718444  0.96317378    -0.23400
C1577       C  0.62754886  0.83615998  0.98000928     0.19600
C1578       C  0.62717500  0.83591974  0.01332128     0.24700
C1579       C  0.64692179  0.85672811  0.03082216    -0.23300
C1580       C  0.66538073  0.87924925  0.01399484     0.19600
F1581       F  0.68394475  0.90066019  0.02963576    -0.13300
F1582       F  0.68494268  0.90088129  0.96575134    -0.15600
F1583       F  0.60842173  0.81413274  0.02824121    -0.15600
F1584       F  0.60899134  0.81468035  0.96444359    -0.13300
C1585       C  0.62309909  0.76196821  0.71442748     0.24700
C1586       C  0.62805323  0.72975811  0.72272675    -0.23400
C1587       C  0.63183102  0.72186603  0.75517790     0.19600
C1588       C  0.63103561  0.74550198  0.77856493     0.24700
C1589       C  0.62667791  0.77776902  0.77019913    -0.23300
C1590       C  0.62245441  0.78563139  0.73783146     0.19600
F1591       F  0.61762543  0.81628792  0.72858154    -0.13300
F1592       F  0.61883462  0.77085135  0.68358788    -0.15600
F1593       F  0.63538798  0.73661171  0.80939281    -0.15600
F1594       F  0.63704569  0.69130208  0.76453276    -0.13300
C1595       C  0.75888712  0.78094124  0.88725359     0.24700
C1596       C  0.72864207  0.77524221  0.87392336    -0.23400
C1597       C  0.72246638  0.74507899  0.86041069     0.19600
C1598       C  0.74590347  0.72136603  0.86008796     0.24700
C1599       C  0.77625116  0.72715796  0.87314225    -0.23300
C1600       C  0.78239353  0.75724285  0.88680501     0.19600
F1601       F  0.81111121  0.76371540  0.90013312    -0.13300
F1602       F  0.76572315  0.80940318  0.90110294    -0.15600
F1603       F  0.73916792  0.69312021  0.84576379    -0.15600
F1604       F  0.69410321  0.73880557  0.84625358    -0.13300
C1605       C  0.84408740  0.88030744  0.51280477     0.24700
C1606       C  0.86203619  0.85759845  0.52980121    -0.23400
C1607       C  0.88207392  0.83685902  0.51252225     0.19600
C1608       C  0.88174546  0.83670933  0.47924236     0.24700
C1609       C  0.86141855  0.85733856  0.46223831    -0.23300
C1610       C  0.84376501  0.88017139  0.47946310     0.19600
F1611       F  0.82528017  0.90188076  0.46420278    -0.13300
F1612       F  0.82599804  0.90219333  0.52832777    -0.15600
F1613       F  0.90034222  0.81511098  0.46390005    -0.15600
F1614       F  0.90099126  0.81540105  0.52762522    -0.13300
C1615       C  0.98822069  0.88112507  0.65882476     0.24700
C1616       C  0.97121944  0.85914333  0.63989581    -0.23400
C1617       C  0.98844782  0.83910877  0.61910621     0.19600
C1618       C  0.02165234  0.83922741  0.61914558     0.24700
C1619       C  0.03865287  0.85941364  0.63995418    -0.23300
C1620       C  0.02146728  0.88126744  0.65883063     0.19600
F1621       F  0.03668160  0.90223779  0.67824945    -0.13300
F1622       F  0.97287536  0.90177050  0.67847466    -0.15600
F1623       F  0.03695545  0.81838194  0.59966098    -0.15600
F1624       F  0.97334782  0.81832248  0.59940466    -0.13300
C1625       C  0.87748123  0.98547426  0.66077552     0.24700
C1626       C  0.85740612  0.96791826  0.64035274    -0.23400
C1627       C  0.83863910  0.98478796  0.61812430     0.19600
C1628       C  0.83839998  0.01820170  0.61784193     0.24700
C1629       C  0.85702532  0.03570454  0.63967683    -0.23300
C1630       C  0.87735232  0.01875632  0.66039635     0.19600
F1631       F  0.89643493  0.03420407  0.68147743    -0.13300
F1632       F  0.89665970  0.97063105  0.68217207    -0.15600
F1633       F  0.81911259  0.03324844  0.59669213    -0.15600
F1634       F  0.81961002  0.96911801  0.59715901    -0.13300
C1635       C  0.74934601  0.78114373  0.60555427     0.24700
C1636       C  0.78064574  0.77373315  0.61496949    -0.23400
C1637       C  0.78794296  0.74190578  0.62291080     0.19600
C1638       C  0.76420508  0.71847080  0.62293232     0.24700
C1639       C  0.73255730  0.72622833  0.61488602    -0.23300
C1640       C  0.72565856  0.75770867  0.60543635     0.19600
F1641       F  0.69588815  0.76599012  0.59601920    -0.13300
F1642       F  0.74149925  0.81117884  0.59637182    -0.15600
F1643       F  0.77212333  0.68846090  0.63216751    -0.15600
F1644       F  0.81779270  0.73355363  0.63204634    -0.13300
C1645       C  0.88499511  0.74281422  0.71291251     0.24700
C1646       C  0.88555744  0.77544660  0.72105339    -0.23400
C1647       C  0.88634578  0.78389061  0.75359413     0.19600
C1648       C  0.88496728  0.76050249  0.77725706     0.24700
C1649       C  0.88322715  0.72792913  0.76911362    -0.23300
C1650       C  0.88381528  0.71942861  0.73655678     0.19600
F1651       F  0.88265534  0.68841934  0.72723097    -0.13300
F1652       F  0.88511252  0.73320792  0.68197358    -0.15600
F1653       F  0.88481836  0.77006681  0.80819569    -0.15600
F1654       F  0.88782726  0.81489560  0.76284069    -0.13300
C1655       C  0.76414386  0.87315291  0.77919212     0.24700
C1656       C  0.73249640  0.88144724  0.77176215    -0.23400
C1657       C  0.72512081  0.88932828  0.73991134     0.19600
C1658       C  0.74844731  0.88811578  0.71609888     0.24700
C1659       C  0.77987220  0.87894605  0.72335688    -0.23300
C1660       C  0.78741768  0.87172175  0.75534568     0.19600
F1661       F  0.81718532  0.86230526  0.76367230    -0.13300
F1662       F  0.77263203  0.86540355  0.80945894    -0.15600
F1663       F  0.74006471  0.89609003  0.68587022    -0.15600
F1664       F  0.69524021  0.89833184  0.73157602    -0.13300
loop_ 
_geom_bond_atom_site_label_1 
_geom_bond_atom_site_label_2 
_geom_bond_distance 
_geom_bond_site_symmetry_2 
_ccdc_geom_bond_type 
Fe1          O17   2.062       .  S
Fe1           O7   2.071       .  S
Fe1          O14   2.074       .  S
Fe1           O6   2.060       .  S
Fe1          O12   1.975       .  S
Fe2           O5   2.059       .  S
Fe2           O9   2.063       .  S
Fe2          O13   2.059       .  S
Fe2          O18   2.065       .  S
Fe2          O12   1.975       .  S
Fe3          O21   2.060       .  S
Fe3           O8   2.051       .  S
Fe3          O15   2.052       .  S
Fe3           O4   2.066       .  S
Fe3          O12   1.975       .  S
O4           C11   1.268       .  A
O5           C19   1.267       .  A
O6           C11   1.267       .  A
O7           C10   1.271       .  A
O8           C20   1.266       .  A
O9           C22   1.269       .  A
C10          O15   1.267       .  A
C10        C1606   1.488       .  S
C11        C1636   1.486       .  S
O13          C16   1.268       .  A
O14          C16   1.271       .  A
C16        C1659   1.491       .  S
O17          C22   1.268       .  A
O18          C20   1.269       .  A
C19          O21   1.268       .  A
C19        C1616   1.488       .  S
C20        C1646   1.487       .  S
C22        C1626   1.491       .  S
Fe23         O39   2.055       .  S
Fe23         O29   2.071       .  S
Fe23         O36   2.069       .  S
Fe23         O28   2.052       .  S
Fe23         O34   1.977       .  S
Fe24         O27   2.075       .  S
Fe24         O31   2.064       .  S
Fe24         O35   2.072       .  S
Fe24         O40   2.065       .  S
Fe24         O34   1.979       .  S
Fe25         O43   2.056       .  S
Fe25         O30   2.064       .  S
Fe25         O37   2.066       .  S
Fe25         O26   2.055       .  S
Fe25         O34   1.976       .  S
O26          C33   1.267       .  A
O27          C41   1.272       .  A
O28          C33   1.266       .  A
O29          C32   1.270       .  A
O30          C42   1.267       .  A
O31          C44   1.269       .  A
C32          O37   1.269       .  A
C32        C1559   1.494       .  S
C33        C1589   1.482       .  S
O35          C38   1.270       .  A
O36          C38   1.270       .  A
C38        C1596   1.490       .  S
O39          C44   1.267       .  A
O40          C42   1.268       .  A
C41          O43   1.268       .  A
C41        C1566   1.492       .  S
C42        C1656   1.491       .  S
C44        C1576   1.489       .  S
Fe45         O61   2.061       .  S
Fe45         O51   2.055       .  S
Fe45         O58   2.050       .  S
Fe45         O50   2.064       .  S
Fe45         O56   1.979       .  S
Fe46         O49   2.069       .  S
Fe46         O53   2.071       .  S
Fe46         O57   2.063       .  S
Fe46         O62   2.072       .  S
Fe46         O56   1.977       .  S
Fe47         O65   2.060       .  S
Fe47         O52   2.067       .  S
Fe47         O59   2.063       .  S
Fe47         O48   2.051       .  S
Fe47         O56   1.977       .  S
O48          C55   1.266       .  A
O49          C63   1.270       .  A
O50          C55   1.267       .  A
O51          C54   1.267       .  A
O52          C64   1.269       .  A
O53          C66   1.270       .  A
C54          O59   1.269       .  A
C54        C1516   1.487       .  S
C55        C1546   1.486       .  S
O57          C60   1.269       .  A
O58          C60   1.266       .  A
C60        C1649   1.487       .  S
O61          C66   1.269       .  A
O62          C64   1.270       .  A
C63          O65   1.268       .  A
C63        C1536   1.493       .  S
C64        C1599   1.489       .  S
C66        C1526   1.493       .  S
Fe67         O83   2.053       .  S
Fe67         O73   2.061       .  S
Fe67         O80   2.058       .  S
Fe67         O72   2.060       .  S
Fe67         O78   1.978       .  S
Fe68         O71   2.063       .  S
Fe68         O75   2.056       .  S
Fe68         O79   2.061       .  S
Fe68         O84   2.056       .  S
Fe68         O78   1.978       .  S
Fe69         O87   2.064       .  S
Fe69         O74   2.056       .  S
Fe69         O81   2.057       .  S
Fe69         O70   2.065       .  S
Fe69         O78   1.974       .  S
O70          C77   1.268       .  A
O71          C85   1.268       .  A
O72          C77   1.266       .  A
O73          C76   1.269       .  A
O74          C86   1.267       .  A
O75          C88   1.267       .  A
C76          O81   1.268       .  A
C76        C1506   1.488       .  S
C77        C1639   1.488       .  S
O79          C82   1.269       .  A
O80          C82   1.267       .  A
C82        C1549   1.485       .  S
O83          C88   1.267       .  A
O84          C86   1.267       .  A
C85          O87   1.269       .  A
C85        C1489   1.491       .  S
C86        C1586   1.484       .  S
C88        C1496   1.485       .  S
Fe89        O105   2.055       .  S
Fe89         O95   2.061       .  S
Fe89        O102   2.060       .  S
Fe89         O94   2.060       .  S
Fe89        O100   1.977       .  S
Fe90         O93   2.059       .  S
Fe90         O97   2.073       .  S
Fe90        O101   2.061       .  S
Fe90        O106   2.072       .  S
Fe90        O100   1.977       .  S
Fe91        O109   2.060       .  S
Fe91         O96   2.065       .  S
Fe91        O103   2.063       .  S
Fe91         O92   2.056       .  S
Fe91        O100   1.978       .  S
O92          C99   1.268       .  A
O93         C107   1.269       .  A
O94          C99   1.268       .  A
O95          C98   1.267       .  A
O96         C108   1.268       .  A
O97         C110   1.271       .  A
C98         O103   1.268       .  A
C98        C1446   1.491       .  S
C99        C1479   1.487       .  S
O101        C104   1.268       .  A
O102        C104   1.267       .  A
C104       C1466   1.488       .  S
O105        C110   1.268       .  A
O106        C108   1.269       .  A
C107        O109   1.269       .  A
C107       C1436   1.488       .  S
C108       C1456   1.492       .  S
C110       C1629   1.492       .  S
Fe111       O127   2.056       .  S
Fe111       O117   2.062       .  S
Fe111       O124   2.059       .  S
Fe111       O116   2.053       .  S
Fe111       O122   1.977       .  S
Fe112       O115   2.065       .  S
Fe112       O119   2.057       .  S
Fe112       O123   2.063       .  S
Fe112       O128   2.054       .  S
Fe112       O122   1.977       .  S
Fe113       O131   2.066       .  S
Fe113       O118   2.061       .  S
Fe113       O125   2.066       .  S
Fe113       O114   2.066       .  S
Fe113       O122   1.975       .  S
O114        C121   1.269       .  A
O115        C129   1.269       .  A
O116        C121   1.267       .  A
O117        C120   1.268       .  A
O118        C130   1.268       .  A
O119        C132   1.269       .  A
C120        O125   1.269       .  A
C120       C1399   1.493       .  S
C121       C1476   1.488       .  S
O123        C126   1.267       .  A
O124        C126   1.266       .  A
C126       C1416   1.490       .  S
O127        C132   1.268       .  A
O128        C130   1.267       .  A
C129        O131   1.270       .  A
C129       C1406   1.494       .  S
C130       C1426   1.484       .  S
C132       C1519   1.485       .  S
Fe133       O149   2.070       .  S
Fe133       O139   2.061       .  S
Fe133       O146   2.062       .  S
Fe133       O138   2.065       .  S
Fe133       O144   1.974       .  S
Fe134       O137   2.056       .  S
Fe134       O141   2.056       .  S
Fe134       O145   2.061       .  S
Fe134       O150   2.050       .  S
Fe134       O144   1.978       .  S
Fe135       O153   2.060       .  S
Fe135       O140   2.062       .  S
Fe135       O147   2.067       .  S
Fe135       O136   2.064       .  S
Fe135       O144   1.980       .  S
O136        C143   1.268       .  A
O137        C151   1.267       .  A
O138        C143   1.269       .  A
O139        C142   1.268       .  A
O140        C152   1.268       .  A
O141        C154   1.267       .  A
C142        O147   1.269       .  A
C142       C1369   1.489       .  S
C143       C1386   1.489       .  S
O145        C148   1.267       .  A
O146        C148   1.267       .  A
C148       C1469   1.489       .  S
O149        C154   1.271       .  A
O150        C152   1.266       .  A
C151        O153   1.268       .  A
C151       C1376   1.488       .  S
C152       C1429   1.485       .  S
C154       C1569   1.491       .  S
Fe155       O171   2.049       .  S
Fe155       O161   2.072       .  S
Fe155       O168   2.076       .  S
Fe155       O160   2.054       .  S
Fe155       O166   1.968       .  S
Fe156       O159   2.049       .  S
Fe156       O163   2.068       .  S
Fe156       O167   2.045       .  S
Fe156       O172   2.077       .  S
Fe156       O166   1.965       .  S
Fe157       O175   2.072       .  S
Fe157       O162   2.059       .  S
Fe157       O169   2.059       .  S
Fe157       O158   2.074       .  S
Fe157       O166   1.966       .  S
O158        C165   1.271       .  A
O159        C173   1.267       .  A
O160        C165   1.267       .  A
O161        C164   1.271       .  A
O162        C174   1.268       .  A
O163        C176   1.270       .  A
C164        O169   1.268       .  A
C164       C1346   1.489       .  S
C165       C1389   1.483       .  S
O167        C170   1.266       .  A
O168        C170   1.271       .  A
C170       C1419   1.488       .  S
O171        C176   1.266       .  A
O172        C174   1.271       .  A
C173        O175   1.270       .  A
C173       C1356   1.483       .  S
C174       C1459   1.486       .  S
C176       C1499   1.484       .  S
Fe177       O193   2.052       .  S
Fe177       O183   2.070       .  S
Fe177       O190   2.073       .  S
Fe177       O182   2.048       .  S
Fe177       O188   1.975       .  S
Fe178       O181   2.049       .  S
Fe178       O185   2.063       .  S
Fe178       O189   2.049       .  S
Fe178       O194   2.062       .  S
Fe178       O188   1.971       .  S
Fe179       O197   2.073       .  S
Fe179       O184   2.053       .  S
Fe179       O191   2.058       .  S
Fe179       O180   2.073       .  S
Fe179       O188   1.975       .  S
O180        C187   1.270       .  A
O181        C195   1.267       .  A
O182        C187   1.265       .  A
O183        C186   1.270       .  A
O184        C196   1.267       .  A
O185        C198   1.268       .  A
C186        O191   1.268       .  A
C186       C1296   1.489       .  S
C187       C1316   1.488       .  S
O189        C192   1.266       .  A
O190        C192   1.270       .  A
C192       C1326   1.489       .  S
O193        C198   1.267       .  A
O194        C196   1.268       .  A
C195        O197   1.271       .  A
C195       C1309   1.486       .  S
C196       C1336   1.487       .  S
C198       C1619   1.486       .  S
Fe199       O215   2.071       .  S
Fe199       O205   2.052       .  S
Fe199       O212   2.052       .  S
Fe199       O204   2.069       .  S
Fe199       O210   1.972       .  S
Fe200       O203   2.062       .  S
Fe200       O207   2.059       .  S
Fe200       O211   2.065       .  S
Fe200       O216   2.051       .  S
Fe200       O210   1.975       .  S
Fe201       O219   2.054       .  S
Fe201       O206   2.062       .  S
Fe201       O213   2.063       .  S
Fe201       O202   2.057       .  S
Fe201       O210   1.976       .  S
O202        C209   1.266       .  A
O203        C217   1.269       .  A
O204        C209   1.268       .  A
O205        C208   1.268       .  A
O206        C218   1.268       .  A
O207        C220   1.267       .  A
C208        O213   1.269       .  A
C208       C1266   1.482       .  S
C209       C1286   1.490       .  S
O211        C214   1.269       .  A
O212        C214   1.267       .  A
C214       C1276   1.488       .  S
O215        C220   1.269       .  A
O216        C218   1.266       .  A
C217        O219   1.268       .  A
C217       C1256   1.483       .  S
C218       C1339   1.487       .  S
C220       C1556   1.490       .  S
Fe221       O237   2.074       .  S
Fe221       O227   2.056       .  S
Fe221       O234   2.055       .  S
Fe221       O226   2.073       .  S
Fe221       O232   1.970       .  S
Fe222       O225   2.064       .  S
Fe222       O229   2.059       .  S
Fe222       O233   2.068       .  S
Fe222       O238   2.055       .  S
Fe222       O232   1.966       .  S
Fe223       O241   2.059       .  S
Fe223       O228   2.074       .  S
Fe223       O235   2.066       .  S
Fe223       O224   2.056       .  S
Fe223       O232   1.972       .  S
O224        C231   1.268       .  A
O225        C239   1.270       .  A
O226        C231   1.271       .  A
O227        C230   1.267       .  A
O228        C240   1.269       .  A
O229        C242   1.268       .  A
C230        O235   1.269       .  A
C230       C1236   1.485       .  S
C231       C1289   1.491       .  S
O233        C236   1.269       .  A
O234        C236   1.268       .  A
C236       C1329   1.489       .  S
O237        C242   1.271       .  A
O238        C240   1.267       .  A
C239        O241   1.269       .  A
C239       C1226   1.488       .  S
C240       C1246   1.492       .  S
C242       C1529   1.491       .  S
Fe243       O259   2.065       .  S
Fe243       O249   2.061       .  S
Fe243       O256   2.056       .  S
Fe243       O248   2.063       .  S
Fe243       O254   1.970       .  S
Fe244       O247   2.066       .  S
Fe244       O251   2.063       .  S
Fe244       O255   2.064       .  S
Fe244       O260   2.064       .  S
Fe244       O254   1.970       .  S
Fe245       O263   2.060       .  S
Fe245       O250   2.066       .  S
Fe245       O257   2.069       .  S
Fe245       O246   2.060       .  S
Fe245       O254   1.968       .  S
O246        C253   1.268       .  A
O247        C261   1.271       .  A
O248        C253   1.268       .  A
O249        C252   1.269       .  A
O250        C262   1.268       .  A
O251        C264   1.268       .  A
C252        O257   1.270       .  A
C252       C1216   1.492       .  S
C253       C1319   1.485       .  S
O255        C258   1.269       .  A
O256        C258   1.268       .  A
C258       C1279   1.486       .  S
O259        C264   1.269       .  A
O260        C262   1.267       .  A
C261        O263   1.270       .  A
C261       C1206   1.489       .  S
C262       C1249   1.492       .  S
C264       C1486   1.492       .  S
Fe265       O281   2.064       .  S
Fe265       O271   2.064       .  S
Fe265       O278   2.063       .  S
Fe265       O270   2.061       .  S
Fe265       O276   1.976       .  S
Fe266       O269   2.054       .  S
Fe266       O273   2.062       .  S
Fe266       O277   2.047       .  S
Fe266       O282   2.064       .  S
Fe266       O276   1.976       .  S
Fe267       O285   2.063       .  S
Fe267       O272   2.057       .  S
Fe267       O279   2.059       .  S
Fe267       O268   2.060       .  S
Fe267       O276   1.974       .  S
O268        C275   1.268       .  A
O269        C283   1.267       .  A
O270        C275   1.267       .  A
O271        C274   1.270       .  A
O272        C284   1.267       .  A
O273        C286   1.269       .  A
C274        O279   1.268       .  A
C274       C1306   1.489       .  S
C275       C1186   1.490       .  S
O277        C280   1.265       .  A
O278        C280   1.268       .  A
C280       C1179   1.478       .  S
O281        C286   1.269       .  A
O282        C284   1.268       .  A
C283        O285   1.269       .  A
C283       C1166   1.487       .  S
C284       C1196   1.489       .  S
C286       C1449   1.491       .  S
Fe287       O303   2.064       .  S
Fe287       O293   2.059       .  S
Fe287       O300   2.061       .  S
Fe287       O292   2.064       .  S
Fe287       O298   1.978       .  S
Fe288       O291   2.058       .  S
Fe288       O295   2.063       .  S
Fe288       O299   2.059       .  S
Fe288       O304   2.058       .  S
Fe288       O298   1.973       .  S
Fe289       O307   2.065       .  S
Fe289       O294   2.067       .  S
Fe289       O301   2.063       .  S
Fe289       O290   2.059       .  S
Fe289       O298   1.979       .  S
O290        C297   1.268       .  A
O291        C305   1.268       .  A
O292        C297   1.268       .  A
O293        C296   1.268       .  A
O294        C306   1.269       .  A
O295        C308   1.269       .  A
C296        O301   1.269       .  A
C296       C1209   1.489       .  S
C297       C1159   1.489       .  S
O299        C302   1.267       .  A
O300        C302   1.267       .  A
C302       C1146   1.490       .  S
O303        C308   1.269       .  A
O304        C306   1.268       .  A
C305        O307   1.268       .  A
C305       C1139   1.486       .  S
C306       C1199   1.487       .  S
C308       C1349   1.491       .  S
Fe309       O325   2.050       .  S
Fe309       O315   2.058       .  S
Fe309       O322   2.061       .  S
Fe309       O314   2.053       .  S
Fe309       O320   1.976       .  S
Fe310       O313   2.057       .  S
Fe310       O317   2.064       .  S
Fe310       O321   2.059       .  S
Fe310       O326   2.057       .  S
Fe310       O320   1.975       .  S
Fe311       O329   2.071       .  S
Fe311       O316   2.065       .  S
Fe311       O323   2.064       .  S
Fe311       O312   2.071       .  S
Fe311       O320   1.978       .  S
O312        C319   1.269       .  A
O313        C327   1.268       .  A
O314        C319   1.266       .  A
O315        C318   1.268       .  A
O316        C328   1.269       .  A
O317        C330   1.268       .  A
C318        O323   1.270       .  A
C318       C1116   1.487       .  S
C319       C1126   1.492       .  S
O321        C324   1.268       .  A
O322        C324   1.268       .  A
C324       C1189   1.490       .  S
O325        C330   1.266       .  A
O326        C328   1.268       .  A
C327        O329   1.270       .  A
C327       C1366   1.489       .  S
C328       C1149   1.490       .  S
C330       C1259   1.485       .  S
Fe331       O347   2.070       .  S
Fe331       O337   2.055       .  S
Fe331       O344   2.055       .  S
Fe331       O336   2.063       .  S
Fe331       O342   1.977       .  S
Fe332       O335   2.060       .  S
Fe332       O339   2.061       .  S
Fe332       O343   2.059       .  S
Fe332       O348   2.061       .  S
Fe332       O342   1.974       .  S
Fe333       O351   2.065       .  S
Fe333       O338   2.067       .  S
Fe333       O345   2.065       .  S
Fe333       O334   2.065       .  S
Fe333       O342   1.979       .  S
O334        C341   1.268       .  A
O335        C349   1.268       .  A
O336        C341   1.268       .  A
O337        C340   1.267       .  A
O338        C350   1.268       .  A
O339        C352   1.268       .  A
C340        O345   1.269       .  A
C340       C1229   1.488       .  S
C341       C1156   1.489       .  S
O343        C346   1.268       .  A
O344        C346   1.267       .  A
C346       C1176   1.479       .  S
O347        C352   1.269       .  A
O348        C350   1.268       .  A
C349        O351   1.270       .  A
C349       C1106   1.490       .  S
C350       C1129   1.493       .  S
C352       C1396   1.493       .  S
Fe353       O369   2.065       .  S
Fe353       O359   2.068       .  S
Fe353       O366   2.066       .  S
Fe353       O358   2.066       .  S
Fe353       O364   1.976       .  S
Fe354       O357   2.057       .  S
Fe354       O361   2.054       .  S
Fe354       O365   2.058       .  S
Fe354       O370   2.053       .  S
Fe354       O364   1.976       .  S
Fe355       O373   2.053       .  S
Fe355       O360   2.057       .  S
Fe355       O367   2.057       .  S
Fe355       O356   2.057       .  S
Fe355       O364   1.974       .  S
O356        C363   1.266       .  A
O357        C371   1.267       .  A
O358        C363   1.268       .  A
O359        C362   1.270       .  A
O360        C372   1.267       .  A
O361        C374   1.267       .  A
C362        O367   1.268       .  A
C362       C1066   1.488       .  S
C363       C1086   1.487       .  S
O365        C368   1.267       .  A
O366        C368   1.269       .  A
C368       C1076   1.489       .  S
O369        C374   1.269       .  A
O370        C372   1.266       .  A
C371        O373   1.267       .  A
C371       C1056   1.485       .  S
C372       C1099   1.480       .  S
C374       C1609   1.488       .  S
Fe375       O391   2.063       .  S
Fe375       O381   2.072       .  S
Fe375       O388   2.066       .  S
Fe375       O380   2.060       .  S
Fe375       O386   1.973       .  S
Fe376       O379   2.067       .  S
Fe376       O383   2.069       .  S
Fe376       O387   2.062       .  S
Fe376       O392   2.067       .  S
Fe376       O386   1.976       .  S
Fe377       O395   2.070       .  S
Fe377       O382   2.043       .  S
Fe377       O389   2.046       .  S
Fe377       O378   2.072       .  S
Fe377       O386   1.972       .  S
O378        C385   1.269       .  A
O379        C393   1.270       .  A
O380        C385   1.268       .  A
O381        C384   1.270       .  A
O382        C394   1.265       .  A
O383        C396   1.270       .  A
C384        O389   1.267       .  A
C384       C1016   1.483       .  S
C385       C1036   1.492       .  S
O387        C390   1.268       .  A
O388        C390   1.269       .  A
C390       C1046   1.486       .  S
O391        C396   1.269       .  A
O392        C394   1.269       .  A
C393        O395   1.270       .  A
C393       C1026   1.495       .  S
C394       C1096   1.482       .  S
C396       C1539   1.492       .  S
Fe397       O413   2.063       .  S
Fe397       O403   2.066       .  S
Fe397       O410   2.063       .  S
Fe397       O402   2.065       .  S
Fe397       O408   1.977       .  S
Fe398       O401   2.066       .  S
Fe398       O405   2.059       .  S
Fe398       O409   2.062       .  S
Fe398       O414   2.057       .  S
Fe398       O408   1.975       .  S
Fe399       O417   2.065       .  S
Fe399       O404   2.060       .  S
Fe399       O411   2.061       .  S
Fe399       O400   2.060       .  S
Fe399       O408   1.976       .  S
O400        C407   1.267       .  A
O401        C415   1.268       .  A
O402        C407   1.268       .  A
O403        C406   1.270       .  A
O404        C416   1.268       .  A
O405        C418   1.269       .  A
C406        O411   1.269       .  A
C406        C996   1.491       .  S
C407       C1089   1.490       .  S
O409        C412   1.268       .  A
O410        C412   1.268       .  A
C412       C1049   1.486       .  S
O413        C418   1.269       .  A
O414        C416   1.268       .  A
C415        O417   1.268       .  A
C415        C986   1.494       .  S
C416       C1006   1.483       .  S
C418       C1579   1.488       .  S
Fe419       O435   2.072       .  S
Fe419       O425   2.059       .  S
Fe419       O432   2.057       .  S
Fe419       O424   2.073       .  S
Fe419       O430   1.973       .  S
Fe420       O423   2.060       .  S
Fe420       O427   2.052       .  S
Fe420       O431   2.061       .  S
Fe420       O436   2.051       .  S
Fe420       O430   1.973       .  S
Fe421       O439   2.065       .  S
Fe421       O426   2.067       .  S
Fe421       O433   2.064       .  S
Fe421       O422   2.057       .  S
Fe421       O430   1.972       .  S
O422        C429   1.267       .  A
O423        C437   1.267       .  A
O424        C429   1.270       .  A
O425        C428   1.268       .  A
O426        C438   1.269       .  A
O427        C440   1.268       .  A
C428        O433   1.270       .  A
C428        C976   1.489       .  S
C429       C1039   1.491       .  S
O431        C434   1.267       .  A
O432        C434   1.267       .  A
C434       C1079   1.490       .  S
O435        C440   1.271       .  A
O436        C438   1.267       .  A
C437        O439   1.268       .  A
C437        C969   1.490       .  S
C438       C1009   1.487       .  S
C440       C1509   1.487       .  S
Fe441       O457   2.056       .  S
Fe441       O447   2.076       .  S
Fe441       O454   2.071       .  S
Fe441       O446   2.056       .  S
Fe441       O452   1.972       .  S
Fe442       O445   2.058       .  S
Fe442       O449   2.073       .  S
Fe442       O453   2.055       .  S
Fe442       O458   2.074       .  S
Fe442       O452   1.971       .  S
Fe443       O461   2.059       .  S
Fe443       O448   2.050       .  S
Fe443       O455   2.053       .  S
Fe443       O444   2.061       .  S
Fe443       O452   1.972       .  S
O444        C451   1.267       .  A
O445        C459   1.268       .  A
O446        C451   1.267       .  A
O447        C450   1.272       .  A
O448        C460   1.266       .  A
O449        C462   1.271       .  A
C450        O455   1.267       .  A
C450        C999   1.491       .  S
C451        C946   1.487       .  S
O453        C456   1.267       .  A
O454        C456   1.270       .  A
C456        C956   1.491       .  S
O457        C462   1.268       .  A
O458        C460   1.270       .  A
C459        O461   1.268       .  A
C459       C1379   1.487       .  S
C460        C936   1.488       .  S
C462        C926   1.491       .  S
Fe463       O479   2.072       .  S
Fe463       O469   2.048       .  S
Fe463       O476   2.044       .  S
Fe463       O468   2.073       .  S
Fe463       O474   1.969       .  S
Fe464       O467   2.074       .  S
Fe464       O471   2.053       .  S
Fe464       O475   2.075       .  S
Fe464       O480   2.054       .  S
Fe464       O474   1.973       .  S
Fe465       O483   2.058       .  S
Fe465       O470   2.071       .  S
Fe465       O477   2.073       .  S
Fe465       O466   2.061       .  S
Fe465       O474   1.970       .  S
O466        C473   1.267       .  A
O467        C481   1.270       .  A
O468        C473   1.270       .  A
O469        C472   1.267       .  A
O470        C482   1.270       .  A
O471        C484   1.267       .  A
C472        O477   1.271       .  A
C472       C1359   1.484       .  S
C473        C906   1.496       .  S
O475        C478   1.271       .  A
O476        C478   1.265       .  A
C478        C916   1.488       .  S
O479        C484   1.270       .  A
O480        C482   1.267       .  A
C481        O483   1.268       .  A
C481        C896   1.490       .  S
C482        C959   1.491       .  S
C484        C979   1.489       .  S
Fe485       O501   2.074       .  S
Fe485       O491   2.055       .  S
Fe485       O498   2.055       .  S
Fe485       O490   2.078       .  S
Fe485       O496   1.977       .  S
Fe486       O489   2.064       .  S
Fe486       O493   2.052       .  S
Fe486       O497   2.063       .  S
Fe486       O502   2.051       .  S
Fe486       O496   1.977       .  S
Fe487       O505   2.056       .  S
Fe487       O492   2.062       .  S
Fe487       O499   2.060       .  S
Fe487       O488   2.057       .  S
Fe487       O496   1.973       .  S
O488        C495   1.267       .  A
O489        C503   1.269       .  A
O490        C495   1.271       .  A
O491        C494   1.267       .  A
O492        C504   1.267       .  A
O493        C506   1.266       .  A
C494        O499   1.268       .  A
C494       C1439   1.486       .  S
C495        C909   1.494       .  S
O497        C500   1.269       .  A
O498        C500   1.267       .  A
C500        C949   1.488       .  S
O501        C506   1.271       .  A
O502        C504   1.265       .  A
C503        O505   1.268       .  A
C503        C876   1.487       .  S
C504        C886   1.486       .  S
C506       C1069   1.488       .  S
Fe507       O523   2.072       .  S
Fe507       O513   2.068       .  S
Fe507       O520   2.059       .  S
Fe507       O512   2.068       .  S
Fe507       O518   1.973       .  S
Fe508       O511   2.070       .  S
Fe508       O515   2.062       .  S
Fe508       O519   2.063       .  S
Fe508       O524   2.057       .  S
Fe508       O518   1.976       .  S
Fe509       O527   2.050       .  S
Fe509       O514   2.059       .  S
Fe509       O521   2.061       .  S
Fe509       O510   2.048       .  S
Fe509       O518   1.973       .  S
O510        C517   1.265       .  A
O511        C525   1.271       .  A
O512        C517   1.270       .  A
O513        C516   1.270       .  A
O514        C526   1.267       .  A
O515        C528   1.269       .  A
C516        O521   1.268       .  A
C516        C869   1.490       .  S
C517        C889   1.483       .  S
O519        C522   1.268       .  A
O520        C522   1.268       .  A
C522        C939   1.488       .  S
O523        C528   1.271       .  A
O524        C526   1.266       .  A
C525        O527   1.268       .  A
C525       C1019   1.483       .  S
C526        C919   1.487       .  S
C528       C1409   1.493       .  S
Fe529       O545   2.062       .  S
Fe529       O535   2.064       .  S
Fe529       O542   2.056       .  S
Fe529       O534   2.070       .  S
Fe529       O540   1.975       .  S
Fe530       O533   2.063       .  S
Fe530       O537   2.058       .  S
Fe530       O541   2.063       .  S
Fe530       O546   2.059       .  S
Fe530       O540   1.980       .  S
Fe531       O549   2.057       .  S
Fe531       O536   2.056       .  S
Fe531       O543   2.053       .  S
Fe531       O532   2.057       .  S
Fe531       O540   1.973       .  S
O532        C539   1.268       .  A
O533        C547   1.269       .  A
O534        C539   1.269       .  A
O535        C538   1.268       .  A
O536        C548   1.266       .  A
O537        C550   1.268       .  A
C538        O543   1.266       .  A
C538       C1169   1.488       .  S
C539        C836   1.492       .  S
O541        C544   1.268       .  A
O542        C544   1.267       .  A
C544        C856   1.489       .  S
O545        C550   1.269       .  A
O546        C548   1.267       .  A
C547        O549   1.268       .  A
C547        C829   1.486       .  S
C548        C849   1.489       .  S
C550        C879   1.488       .  S
Fe551       O567   2.054       .  S
Fe551       O557   2.059       .  S
Fe551       O564   2.056       .  S
Fe551       O556   2.060       .  S
Fe551       O562   1.972       .  S
Fe552       O555   2.067       .  S
Fe552       O559   2.071       .  S
Fe552       O563   2.067       .  S
Fe552       O568   2.068       .  S
Fe552       O562   1.975       .  S
Fe553       O571   2.060       .  S
Fe553       O558   2.059       .  S
Fe553       O565   2.064       .  S
Fe553       O554   2.066       .  S
Fe553       O562   1.970       .  S
O554        C561   1.268       .  A
O555        C569   1.270       .  A
O556        C561   1.267       .  A
O557        C560   1.268       .  A
O558        C570   1.269       .  A
O559        C572   1.270       .  A
C560        O565   1.269       .  A
C560        C799   1.489       .  S
C561        C806   1.490       .  S
O563        C566   1.269       .  A
O564        C566   1.267       .  A
C566        C816   1.484       .  S
O567        C572   1.267       .  A
O568        C570   1.270       .  A
C569        O571   1.268       .  A
C569        C866   1.489       .  S
C570        C859   1.490       .  S
C572       C1109   1.490       .  S
Fe573       O589   2.056       .  S
Fe573       O579   2.066       .  S
Fe573       O586   2.059       .  S
Fe573       O578   2.061       .  S
Fe573       O584   1.976       .  S
Fe574       O577   2.068       .  S
Fe574       O581   2.058       .  S
Fe574       O585   2.063       .  S
Fe574       O590   2.060       .  S
Fe574       O584   1.981       .  S
Fe575       O593   2.052       .  S
Fe575       O580   2.059       .  S
Fe575       O587   2.060       .  S
Fe575       O576   2.056       .  S
Fe575       O584   1.972       .  S
O576        C583   1.267       .  A
O577        C591   1.270       .  A
O578        C583   1.268       .  A
O579        C582   1.269       .  A
O580        C592   1.267       .  A
O581        C594   1.267       .  A
C582        O587   1.268       .  A
C582        C929   1.492       .  S
C583        C786   1.483       .  S
O585        C588   1.269       .  A
O586        C588   1.268       .  A
C588        C846   1.489       .  S
O589        C594   1.268       .  A
O590        C592   1.266       .  A
C591        O593   1.267       .  A
C591       C1119   1.488       .  S
C592        C819   1.487       .  S
C594        C779   1.485       .  S
Fe595       O611   2.054       .  S
Fe595       O601   2.071       .  S
Fe595       O608   2.065       .  S
Fe595       O600   2.058       .  S
Fe595       O606   1.976       .  S
Fe596       O599   2.072       .  S
Fe596       O603   2.071       .  S
Fe596       O607   2.062       .  S
Fe596       O612   2.074       .  S
Fe596       O606   1.980       .  S
Fe597       O615   2.053       .  S
Fe597       O602   2.054       .  S
Fe597       O609   2.059       .  S
Fe597       O598   2.060       .  S
Fe597       O606   1.972       .  S
O598        C605   1.267       .  A
O599        C613   1.270       .  A
O600        C605   1.267       .  A
O601        C604   1.270       .  A
O602        C614   1.267       .  A
O603        C616   1.270       .  A
C604        O609   1.268       .  A
C604        C899   1.490       .  S
C605        C789   1.485       .  S
O607        C610   1.269       .  A
O608        C610   1.269       .  A
C610        C809   1.492       .  S
O611        C616   1.268       .  A
O612        C614   1.270       .  A
C613        O615   1.267       .  A
C613       C1136   1.488       .  S
C614        C839   1.493       .  S
C616        C766   1.487       .  S
Fe617       O633   2.057       .  S
Fe617       O623   2.066       .  S
Fe617       O630   2.065       .  S
Fe617       O622   2.054       .  S
Fe617       O628   1.977       .  S
Fe618       O621   2.063       .  S
Fe618       O625   2.057       .  S
Fe618       O629   2.063       .  S
Fe618       O634   2.057       .  S
Fe618       O628   1.977       .  S
Fe619       O637   2.062       .  S
Fe619       O624   2.071       .  S
Fe619       O631   2.072       .  S
Fe619       O620   2.066       .  S
Fe619       O628   1.979       .  S
O620        C627   1.269       .  A
O621        C635   1.269       .  A
O622        C627   1.266       .  A
O623        C626   1.269       .  A
O624        C636   1.269       .  A
O625        C638   1.268       .  A
C626        O631   1.270       .  A
C626       C1029   1.495       .  S
C627        C746   1.486       .  S
O629        C632   1.268       .  A
O630        C632   1.269       .  A
C632        C736   1.492       .  S
O633        C638   1.267       .  A
O634        C636   1.267       .  A
C635        O637   1.269       .  A
C635        C796   1.489       .  S
C636        C756   1.487       .  S
C638       C1239   1.487       .  S
Fe639       O655   2.067       .  S
Fe639       O645   2.066       .  S
Fe639       O652   2.066       .  S
Fe639       O644   2.065       .  S
Fe639       O650   1.979       .  S
Fe640       O643   2.067       .  S
Fe640       O647   2.056       .  S
Fe640       O651   2.063       .  S
Fe640       O656   2.060       .  S
Fe640       O650   1.975       .  S
Fe641       O659   2.056       .  S
Fe641       O646   2.059       .  S
Fe641       O653   2.060       .  S
Fe641       O642   2.053       .  S
Fe641       O650   1.978       .  S
O642        C649   1.267       .  A
O643        C657   1.269       .  A
O644        C649   1.269       .  A
O645        C648   1.269       .  A
O646        C658   1.267       .  A
O647        C660   1.269       .  A
C648        O653   1.268       .  A
C648       C1219   1.492       .  S
C649        C726   1.487       .  S
O651        C654   1.268       .  A
O652        C654   1.268       .  A
C654        C759   1.487       .  S
O655        C660   1.270       .  A
O656        C658   1.267       .  A
C657        O659   1.267       .  A
C657        C966   1.488       .  S
C658        C716   1.488       .  S
C660        C769   1.488       .  S
Fe661       O677   2.056       .  S
Fe661       O667   2.075       .  S
Fe661       O674   2.071       .  S
Fe661       O666   2.061       .  S
Fe661       O672   1.977       .  S
Fe662       O665   2.062       .  S
Fe662       O669   2.054       .  S
Fe662       O673   2.055       .  S
Fe662       O678   2.060       .  S
Fe662       O672   1.977       .  S
Fe663       O681   2.063       .  S
Fe663       O668   2.051       .  S
Fe663       O675   2.047       .  S
Fe663       O664   2.064       .  S
Fe663       O672   1.971       .  S
O664        C671   1.267       .  A
O665        C679   1.267       .  A
O666        C671   1.266       .  A
O667        C670   1.273       .  A
O668        C680   1.267       .  A
O669        C682   1.266       .  A
C670        O675   1.268       .  A
C670        C826   1.486       .  S
C671        C706   1.491       .  S
O673        C676   1.267       .  A
O674        C676   1.271       .  A
C676        C749   1.486       .  S
O677        C682   1.267       .  A
O678        C680   1.268       .  A
C679        O681   1.268       .  A
C679       C1299   1.491       .  S
C680        C729   1.486       .  S
C682       C1059   1.486       .  S
Fe683       O699   2.057       .  S
Fe683       O689   2.064       .  S
Fe683       O696   2.061       .  S
Fe683       O688   2.064       .  S
Fe683       O694   1.970       .  S
Fe684       O687   2.066       .  S
Fe684       O691   2.062       .  S
Fe684       O695   2.066       .  S
Fe684       O700   2.062       .  S
Fe684       O694   1.975       .  S
Fe685       O703   2.051       .  S
Fe685       O690   2.069       .  S
Fe685       O697   2.070       .  S
Fe685       O686   2.053       .  S
Fe685       O694   1.965       .  S
O686        C693   1.268       .  A
O687        C701   1.269       .  A
O688        C693   1.268       .  A
O689        C692   1.269       .  A
O690        C702   1.269       .  A
O691        C704   1.269       .  A
C692        O697   1.269       .  A
C692        C989   1.493       .  S
C693        C719   1.487       .  S
O695        C698   1.269       .  A
O696        C698   1.268       .  A
C698        C739   1.489       .  S
O699        C704   1.268       .  A
O700        C702   1.268       .  A
C701        O703   1.268       .  A
C701        C776   1.482       .  S
C702        C709   1.489       .  S
C704       C1269   1.487       .  S
C705        C706   1.411       .  A
C705        C710   1.400       .  A
C705        F712   1.358       .  S
C706        C707   1.410       .  A
C707        C708   1.398       .  A
C707        F714   1.358       .  S
C708        C709   1.410       .  A
C708        F713   1.358       .  S
C709        C710   1.410       .  A
C710        F711   1.358       .  S
C715        C716   1.410       .  A
C715        C720   1.396       .  A
C715        F722   1.358       .  S
C716        C717   1.410       .  A
C717        C718   1.398       .  A
C717        F724   1.358       .  S
C718        C719   1.411       .  A
C718        F723   1.358       .  S
C719        C720   1.410       .  A
C720        F721   1.358       .  S
C725        C726   1.411       .  A
C725        C730   1.395       .  A
C725        F732   1.358       .  S
C726        C727   1.410       .  A
C727        C728   1.397       .  A
C727        F734   1.358       .  S
C728        C729   1.411       .  A
C728        F733   1.358       .  S
C729        C730   1.410       .  A
C730        F731   1.358       .  S
C735        C736   1.411       .  A
C735        C740   1.398       .  A
C735        F742   1.358       .  S
C736        C737   1.412       .  A
C737        C738   1.399       .  A
C737        F744   1.358       .  S
C738        C739   1.409       .  A
C738        F743   1.358       .  S
C739        C740   1.410       .  A
C740        F741   1.358       .  S
C745        C746   1.409       .  A
C745        C750   1.398       .  A
C745        F752   1.358       .  S
C746        C747   1.411       .  A
C747        C748   1.397       .  A
C747        F754   1.358       .  S
C748        C749   1.408       .  A
C748        F753   1.358       .  S
C749        C750   1.412       .  A
C750        F751   1.358       .  S
C755        C756   1.410       .  A
C755        C760   1.397       .  A
C755        F762   1.358       .  S
C756        C757   1.409       .  A
C757        C758   1.401       .  A
C757        F764   1.358       .  S
C758        C759   1.410       .  A
C758        F763   1.358       .  S
C759        C760   1.409       .  A
C760        F761   1.358       .  S
C765        C766   1.410       .  A
C765        C770   1.394       .  A
C765        F772   1.358       .  S
C766        C767   1.410       .  A
C767        C768   1.401       .  A
C767        F774   1.358       .  S
C768        C769   1.410       .  A
C768        F773   1.358       .  S
C769        C770   1.410       .  A
C770        F771   1.358       .  S
C775        C776   1.408       .  A
C775        C780   1.393   1_565  A
C775        F782   1.358       .  S
C776        C777   1.409       .  A
C777        C778   1.398   1_565  A
C777        F784   1.358       .  S
C778        C779   1.411       .  A
C778        F783   1.358       .  S
C779        C780   1.409       .  A
C780        F781   1.358       .  S
C785        C786   1.408       .  A
C785        C790   1.398       .  A
C785        F792   1.358       .  S
C786        C787   1.409       .  A
C787        C788   1.396       .  A
C787        F794   1.358       .  S
C788        C789   1.409       .  A
C788        F793   1.358       .  S
C789        C790   1.410       .  A
C790        F791   1.358       .  S
C795        C796   1.410       .  A
C795        C800   1.397       .  A
C795        F802   1.358       .  S
C796        C797   1.411       .  A
C797        C798   1.398       .  A
C797        F804   1.358       .  S
C798        C799   1.410       .  A
C798        F803   1.358       .  S
C799        C800   1.412       .  A
C800        F801   1.358       .  S
C805        C806   1.410       .  A
C805        C810   1.397       .  A
C805        F812   1.358       .  S
C806        C807   1.410       .  A
C807        C808   1.400       .  A
C807        F814   1.358       .  S
C808        C809   1.412       .  A
C808        F813   1.358       .  S
C809        C810   1.411       .  A
C810        F811   1.358       .  S
C815        C816   1.407       .  A
C815        C820   1.400       .  A
C815        F822   1.358       .  S
C816        C817   1.409       .  A
C817        C818   1.395       .  A
C817        F824   1.358       .  S
C818        C819   1.409       .  A
C818        F823   1.358       .  S
C819        C820   1.411       .  A
C820        F821   1.358       .  S
C825        C826   1.411       .  A
C825        C830   1.394   1_565  A
C825        F832   1.358       .  S
C826        C827   1.409       .  A
C827        C828   1.399   1_565  A
C827        F834   1.358       .  S
C828        C829   1.411       .  A
C828        F833   1.358       .  S
C829        C830   1.409       .  A
C830        F831   1.358       .  S
C835        C836   1.411       .  A
C835        C840   1.401       .  A
C835        F842   1.358       .  S
C836        C837   1.411       .  A
C837        C838   1.396       .  A
C837        F844   1.358       .  S
C838        C839   1.411       .  A
C838        F843   1.358       .  S
C839        C840   1.411       .  A
C840        F841   1.358       .  S
C845        C846   1.410       .  A
C845        C850   1.398       .  A
C845        F852   1.358       .  S
C846        C847   1.411       .  A
C847        C848   1.396       .  A
C847        F854   1.358       .  S
C848        C849   1.411       .  A
C848        F853   1.358       .  S
C849        C850   1.410       .  A
C850        F851   1.358       .  S
C855        C856   1.410       .  A
C855        C860   1.396       .  A
C855        F862   1.358       .  S
C856        C857   1.410       .  A
C857        C858   1.399       .  A
C857        F864   1.358       .  S
C858        C859   1.412       .  A
C858        F863   1.358       .  S
C859        C860   1.410       .  A
C860        F861   1.358       .  S
C865        C866   1.410       .  A
C865        C870   1.401   1_455  A
C865        F872   1.358       .  S
C866        C867   1.411       .  A
C867        C868   1.396   1_455  A
C867        F874   1.359       .  S
C868        C869   1.411       .  A
C868        F873   1.358       .  S
C869        C870   1.410       .  A
C870        F871   1.358       .  S
C875        C876   1.410       .  A
C875        C880   1.399   1_655  A
C875        F882   1.358       .  S
C876        C877   1.410       .  A
C877        C878   1.395   1_655  A
C877        F884   1.358       .  S
C878        C879   1.410       .  A
C878        F883   1.358       .  S
C879        C880   1.411       .  A
C880        F881   1.358       .  S
C885        C886   1.410       .  A
C885        C890   1.397       .  A
C885        F892   1.358       .  S
C886        C887   1.411       .  A
C887        C888   1.395       .  A
C887        F894   1.358       .  S
C888        C889   1.407       .  A
C888        F893   1.358       .  S
C889        C890   1.410       .  A
C890        F891   1.358       .  S
C895        C896   1.410       .  A
C895        C900   1.401       .  A
C895        F902   1.358       .  S
C896        C897   1.410       .  A
C897        C898   1.397       .  A
C897        F904   1.358       .  S
C898        C899   1.410       .  A
C898        F903   1.358       .  S
C899        C900   1.411       .  A
C900        F901   1.358       .  S
C905        C906   1.413       .  A
C905        C910   1.402       .  A
C905        F912   1.358       .  S
C906        C907   1.411       .  A
C907        C908   1.398       .  A
C907        F914   1.358       .  S
C908        C909   1.411       .  A
C908        F913   1.358       .  S
C909        C910   1.410       .  A
C910        F911   1.358       .  S
C915        C916   1.411       .  A
C915        C920   1.395       .  A
C915        F922   1.358       .  S
C916        C917   1.410       .  A
C917        C918   1.398       .  A
C917        F924   1.358       .  S
C918        C919   1.410       .  A
C918        F923   1.358       .  S
C919        C920   1.409       .  A
C920        F921   1.358       .  S
C925        C926   1.412       .  A
C925        C930   1.398       .  A
C925        F932   1.358       .  S
C926        C927   1.410       .  A
C927        C928   1.398       .  A
C927        F934   1.358       .  S
C928        C929   1.412       .  A
C928        F933   1.358       .  S
C929        C930   1.410       .  A
C930        F931   1.358       .  S
C935        C936   1.411       .  A
C935        C940   1.396       .  A
C935        F942   1.358       .  S
C936        C937   1.410       .  A
C937        C938   1.399       .  A
C937        F944   1.358       .  S
C938        C939   1.410       .  A
C938        F943   1.358       .  S
C939        C940   1.409       .  A
C940        F941   1.358       .  S
C945        C946   1.409       .  A
C945        C950   1.397       .  A
C945        F952   1.358       .  S
C946        C947   1.410       .  A
C947        C948   1.396       .  A
C947        F954   1.358       .  S
C948        C949   1.410       .  A
C948        F953   1.358       .  S
C949        C950   1.412       .  A
C950        F951   1.358       .  S
C955        C956   1.410       .  A
C955        C960   1.398       .  A
C955        F962   1.358       .  S
C956        C957   1.411       .  A
C957        C958   1.398       .  A
C957        F964   1.358       .  S
C958        C959   1.412       .  A
C958        F963   1.358       .  S
C959        C960   1.410       .  A
C960        F961   1.358       .  S
C965        C966   1.410       .  A
C965        C970   1.396       .  A
C965        F972   1.358       .  S
C966        C967   1.409       .  A
C967        C968   1.400       .  A
C967        F974   1.358       .  S
C968        C969   1.411       .  A
C968        F973   1.358       .  S
C969        C970   1.411       .  A
C970        F971   1.358       .  S
C975        C976   1.410       .  A
C975        C980   1.396       .  A
C975        F982   1.358       .  S
C976        C977   1.411       .  A
C977        C978   1.399       .  A
C977        F984   1.358       .  S
C978        C979   1.410       .  A
C978        F983   1.358       .  S
C979        C980   1.411       .  A
C980        F981   1.358       .  S
C985        C986   1.412       .  A
C985        C990   1.399       .  A
C985        F992   1.358       .  S
C986        C987   1.411       .  A
C987        C988   1.400       .  A
C987        F994   1.358       .  S
C988        C989   1.411       .  A
C988        F993   1.358       .  S
C989        C990   1.410       .  A
C990        F991   1.358       .  S
C995        C996   1.411       .  A
C995       C1000   1.398   1_565  A
C995       F1002   1.358       .  S
C996        C997   1.410       .  A
C997        C998   1.398   1_565  A
C997       F1004   1.358       .  S
C998        C999   1.412       .  A
C998       F1003   1.358       .  S
C999       C1000   1.409       .  A
C1000      F1001   1.358       .  S
C1005      C1006   1.408       .  A
C1005      C1010   1.397       .  A
C1005      F1012   1.358       .  S
C1006      C1007   1.408       .  A
C1007      C1008   1.395       .  A
C1007      F1014   1.358       .  S
C1008      C1009   1.411       .  A
C1008      F1013   1.358       .  S
C1009      C1010   1.410       .  A
C1010      F1011   1.358       .  S
C1015      C1016   1.410       .  A
C1015      C1020   1.393       .  A
C1015      F1022   1.359       .  S
C1016      C1017   1.408       .  A
C1017      C1018   1.399       .  A
C1017      F1024   1.358       .  S
C1018      C1019   1.409       .  A
C1018      F1023   1.358       .  S
C1019      C1020   1.409       .  A
C1020      F1021   1.358       .  S
C1025      C1026   1.411       .  A
C1025      C1030   1.401   1_655  A
C1025      F1032   1.358       .  S
C1026      C1027   1.412       .  A
C1027      C1028   1.400   1_655  A
C1027      F1034   1.358       .  S
C1028      C1029   1.411       .  A
C1028      F1033   1.358       .  S
C1029      C1030   1.412       .  A
C1030      F1031   1.358       .  S
C1035      C1036   1.411       .  A
C1035      C1040   1.401       .  A
C1035      F1042   1.358       .  S
C1036      C1037   1.410       .  A
C1037      C1038   1.397       .  A
C1037      F1044   1.358       .  S
C1038      C1039   1.410       .  A
C1038      F1043   1.358       .  S
C1039      C1040   1.410       .  A
C1040      F1041   1.358       .  S
C1045      C1046   1.409       .  A
C1045      C1050   1.396       .  A
C1045      F1052   1.358       .  S
C1046      C1047   1.409       .  A
C1047      C1048   1.400       .  A
C1047      F1054   1.358       .  S
C1048      C1049   1.410       .  A
C1048      F1053   1.358       .  S
C1049      C1050   1.410       .  A
C1050      F1051   1.358       .  S
C1055      C1056   1.410       .  A
C1055      C1060   1.395   1_655  A
C1055      F1062   1.358       .  S
C1056      C1057   1.410       .  A
C1057      C1058   1.395   1_655  A
C1057      F1064   1.358       .  S
C1058      C1059   1.410       .  A
C1058      F1063   1.358       .  S
C1059      C1060   1.410       .  A
C1060      F1061   1.358       .  S
C1065      C1066   1.410       .  A
C1065      C1070   1.400   1_565  A
C1065      F1072   1.358       .  S
C1066      C1067   1.410       .  A
C1067      C1068   1.395   1_565  A
C1067      F1074   1.358       .  S
C1068      C1069   1.410       .  A
C1068      F1073   1.358       .  S
C1069      C1070   1.409       .  A
C1070      F1071   1.358       .  S
C1075      C1076   1.411       .  A
C1075      C1080   1.397       .  A
C1075      F1082   1.358       .  S
C1076      C1077   1.409       .  A
C1077      C1078   1.398       .  A
C1077      F1084   1.358       .  S
C1078      C1079   1.412       .  A
C1078      F1083   1.358       .  S
C1079      C1080   1.410       .  A
C1080      F1081   1.358       .  S
C1085      C1086   1.408       .  A
C1085      C1090   1.398       .  A
C1085      F1092   1.358       .  S
C1086      C1087   1.410       .  A
C1087      C1088   1.399       .  A
C1087      F1094   1.358       .  S
C1088      C1089   1.411       .  A
C1088      F1093   1.358       .  S
C1089      C1090   1.411       .  A
C1090      F1091   1.358       .  S
C1095      C1096   1.411       .  A
C1095      C1100   1.394       .  A
C1095      F1102   1.359       .  S
C1096      C1097   1.408       .  A
C1097      C1098   1.396       .  A
C1097      F1104   1.358       .  S
C1098      C1099   1.408       .  A
C1098      F1103   1.358       .  S
C1099      C1100   1.408       .  A
C1100      F1101   1.358       .  S
C1105      C1106   1.412       .  A
C1105      C1110   1.398   1_556  A
C1105      F1112   1.358       .  S
C1106      C1107   1.410       .  A
C1107      C1108   1.397   1_556  A
C1107      F1114   1.358       .  S
C1108      C1109   1.411       .  A
C1108      F1113   1.358       .  S
C1109      C1110   1.410       .  A
C1110      F1111   1.358       .  S
C1115      C1116   1.408       .  A
C1115      C1120   1.394   1_556  A
C1115      F1122   1.358       .  S
C1116      C1117   1.411       .  A
C1117      C1118   1.399   1_556  A
C1117      F1124   1.358       .  S
C1118      C1119   1.410       .  A
C1118      F1123   1.358       .  S
C1119      C1120   1.411       .  A
C1120      F1121   1.358       .  S
C1125      C1126   1.412       .  A
C1125      C1130   1.397       .  A
C1125      F1132   1.358       .  S
C1126      C1127   1.410       .  A
C1127      C1128   1.400       .  A
C1127      F1134   1.358       .  S
C1128      C1129   1.412       .  A
C1128      F1133   1.358       .  S
C1129      C1130   1.410       .  A
C1130      F1131   1.358       .  S
C1135      C1136   1.410       .  A
C1135      C1140   1.402       .  A
C1135      F1142   1.358       .  S
C1136      C1137   1.411       .  A
C1137      C1138   1.394       .  A
C1137      F1144   1.358       .  S
C1138      C1139   1.408       .  A
C1138      F1143   1.358       .  S
C1139      C1140   1.410       .  A
C1140      F1141   1.358       .  S
C1145      C1146   1.411       .  A
C1145      C1150   1.399       .  A
C1145      F1152   1.358       .  S
C1146      C1147   1.410       .  A
C1147      C1148   1.395       .  A
C1147      F1154   1.358       .  S
C1148      C1149   1.411       .  A
C1148      F1153   1.358       .  S
C1149      C1150   1.411       .  A
C1150      F1151   1.358       .  S
C1155      C1156   1.411       .  A
C1155      C1160   1.401       .  A
C1155      F1162   1.358       .  S
C1156      C1157   1.410       .  A
C1157      C1158   1.395       .  A
C1157      F1164   1.358       .  S
C1158      C1159   1.410       .  A
C1158      F1163   1.358       .  S
C1159      C1160   1.411       .  A
C1160      F1161   1.358       .  S
C1165      C1166   1.411       .  A
C1165      C1170   1.398       .  A
C1165      F1172   1.358       .  S
C1166      C1167   1.409       .  A
C1167      C1168   1.395       .  A
C1167      F1174   1.358       .  S
C1168      C1169   1.411       .  A
C1168      F1173   1.358       .  S
C1169      C1170   1.409       .  A
C1170      F1171   1.358       .  S
C1175      C1176   1.407       .  A
C1175      C1180   1.395       .  A
C1175      F1182   1.358       .  S
C1176      C1177   1.408       .  A
C1177      C1178   1.397       .  A
C1177      F1184   1.358       .  S
C1178      C1179   1.407       .  A
C1178      F1183   1.358       .  S
C1179      C1180   1.409       .  A
C1180      F1181   1.359       .  S
C1185      C1186   1.411       .  A
C1185      C1190   1.399       .  A
C1185      F1192   1.358       .  S
C1186      C1187   1.410       .  A
C1187      C1188   1.396       .  A
C1187      F1194   1.358       .  S
C1188      C1189   1.410       .  A
C1188      F1193   1.358       .  S
C1189      C1190   1.411       .  A
C1190      F1191   1.358       .  S
C1195      C1196   1.410       .  A
C1195      C1200   1.396       .  A
C1195      F1202   1.358       .  S
C1196      C1197   1.411       .  A
C1197      C1198   1.400       .  A
C1197      F1204   1.358       .  S
C1198      C1199   1.409       .  A
C1198      F1203   1.358       .  S
C1199      C1200   1.410       .  A
C1200      F1201   1.358       .  S
C1205      C1206   1.411       .  A
C1205      C1210   1.398       .  A
C1205      F1212   1.358       .  S
C1206      C1207   1.410       .  A
C1207      C1208   1.396       .  A
C1207      F1214   1.358       .  S
C1208      C1209   1.410       .  A
C1208      F1213   1.358       .  S
C1209      C1210   1.410       .  A
C1210      F1211   1.358       .  S
C1215      C1216   1.411       .  A
C1215      C1220   1.399       .  A
C1215      F1222   1.358       .  S
C1216      C1217   1.411       .  A
C1217      C1218   1.398       .  A
C1217      F1224   1.358       .  S
C1218      C1219   1.410       .  A
C1218      F1223   1.358       .  S
C1219      C1220   1.411       .  A
C1220      F1221   1.358       .  S
C1225      C1226   1.410       .  A
C1225      C1230   1.396       .  A
C1225      F1232   1.358       .  S
C1226      C1227   1.410       .  A
C1227      C1228   1.398       .  A
C1227      F1234   1.358       .  S
C1228      C1229   1.410       .  A
C1228      F1233   1.358       .  S
C1229      C1230   1.410       .  A
C1230      F1231   1.358       .  S
C1235      C1236   1.409       .  A
C1235      C1240   1.397   1_556  A
C1235      F1242   1.358       .  S
C1236      C1237   1.409       .  A
C1237      C1238   1.396   1_556  A
C1237      F1244   1.358       .  S
C1238      C1239   1.410       .  A
C1238      F1243   1.358       .  S
C1239      C1240   1.411       .  A
C1240      F1241   1.358       .  S
C1245      C1246   1.412       .  A
C1245      C1250   1.402       .  A
C1245      F1252   1.358       .  S
C1246      C1247   1.410       .  A
C1247      C1248   1.396       .  A
C1247      F1254   1.358       .  S
C1248      C1249   1.410       .  A
C1248      F1253   1.358       .  S
C1249      C1250   1.411       .  A
C1250      F1251   1.358       .  S
C1255      C1256   1.409       .  A
C1255      C1260   1.399   1_565  A
C1255      F1262   1.358       .  S
C1256      C1257   1.408       .  A
C1257      C1258   1.393   1_565  A
C1257      F1264   1.358       .  S
C1258      C1259   1.410       .  A
C1258      F1263   1.358       .  S
C1259      C1260   1.410       .  A
C1260      F1261   1.358       .  S
C1265      C1266   1.409       .  A
C1265      C1270   1.398   1_556  A
C1265      F1272   1.358       .  S
C1266      C1267   1.408       .  A
C1267      C1268   1.393   1_556  A
C1267      F1274   1.358       .  S
C1268      C1269   1.411       .  A
C1268      F1273   1.358       .  S
C1269      C1270   1.411       .  A
C1270      F1271   1.358       .  S
C1275      C1276   1.411       .  A
C1275      C1280   1.398       .  A
C1275      F1282   1.358       .  S
C1276      C1277   1.411       .  A
C1277      C1278   1.395       .  A
C1277      F1284   1.358       .  S
C1278      C1279   1.409       .  A
C1278      F1283   1.358       .  S
C1279      C1280   1.410       .  A
C1280      F1281   1.358       .  S
C1285      C1286   1.410       .  A
C1285      C1290   1.398       .  A
C1285      F1292   1.358       .  S
C1286      C1287   1.410       .  A
C1287      C1288   1.398       .  A
C1287      F1294   1.358       .  S
C1288      C1289   1.411       .  A
C1288      F1293   1.358       .  S
C1289      C1290   1.411       .  A
C1290      F1291   1.358       .  S
C1295      C1296   1.410       .  A
C1295      C1300   1.400       .  A
C1295      F1302   1.358       .  S
C1296      C1297   1.410       .  A
C1297      C1298   1.397       .  A
C1297      F1304   1.358       .  S
C1298      C1299   1.411       .  A
C1298      F1303   1.358       .  S
C1299      C1300   1.411       .  A
C1300      F1301   1.358       .  S
C1305      C1306   1.410       .  A
C1305      C1310   1.395   1_545  A
C1305      F1312   1.358       .  S
C1306      C1307   1.412       .  A
C1307      C1308   1.400   1_545  A
C1307      F1314   1.358       .  S
C1308      C1309   1.408       .  A
C1308      F1313   1.358       .  S
C1309      C1310   1.410       .  A
C1310      F1311   1.358       .  S
C1315      C1316   1.409       .  A
C1315      C1320   1.397       .  A
C1315      F1322   1.358       .  S
C1316      C1317   1.412       .  A
C1317      C1318   1.397       .  A
C1317      F1324   1.358       .  S
C1318      C1319   1.407       .  A
C1318      F1323   1.358       .  S
C1319      C1320   1.410       .  A
C1320      F1321   1.358       .  S
C1325      C1326   1.411       .  A
C1325      C1330   1.396       .  A
C1325      F1332   1.358       .  S
C1326      C1327   1.409       .  A
C1327      C1328   1.399       .  A
C1327      F1334   1.358       .  S
C1328      C1329   1.411       .  A
C1328      F1333   1.358       .  S
C1329      C1330   1.410       .  A
C1330      F1331   1.358       .  S
C1335      C1336   1.411       .  A
C1335      C1340   1.397       .  A
C1335      F1342   1.358       .  S
C1336      C1337   1.410       .  A
C1337      C1338   1.395       .  A
C1337      F1344   1.358       .  S
C1338      C1339   1.411       .  A
C1338      F1343   1.358       .  S
C1339      C1340   1.410       .  A
C1340      F1341   1.358       .  S
C1345      C1346   1.410       .  A
C1345      C1350   1.398       .  A
C1345      F1352   1.358       .  S
C1346      C1347   1.410       .  A
C1347      C1348   1.399       .  A
C1347      F1354   1.358       .  S
C1348      C1349   1.411       .  A
C1348      F1353   1.358       .  S
C1349      C1350   1.410       .  A
C1350      F1351   1.358       .  S
C1355      C1356   1.408       .  A
C1355      C1360   1.399       .  A
C1355      F1362   1.358       .  S
C1356      C1357   1.409       .  A
C1357      C1358   1.394       .  A
C1357      F1364   1.358       .  S
C1358      C1359   1.410       .  A
C1358      F1363   1.358       .  S
C1359      C1360   1.409       .  A
C1360      F1361   1.358       .  S
C1365      C1366   1.410       .  A
C1365      C1370   1.396       .  A
C1365      F1372   1.358       .  S
C1366      C1367   1.410       .  A
C1367      C1368   1.401       .  A
C1367      F1374   1.358       .  S
C1368      C1369   1.410       .  A
C1368      F1373   1.358       .  S
C1369      C1370   1.410       .  A
C1370      F1371   1.358       .  S
C1375      C1376   1.411       .  A
C1375      C1380   1.397   1_556  A
C1375      F1382   1.358       .  S
C1376      C1377   1.410       .  A
C1377      C1378   1.396   1_556  A
C1377      F1384   1.358       .  S
C1378      C1379   1.410       .  A
C1378      F1383   1.358       .  S
C1379      C1380   1.411       .  A
C1380      F1381   1.358       .  S
C1385      C1386   1.412       .  A
C1385      C1390   1.401       .  A
C1385      F1392   1.358       .  S
C1386      C1387   1.410       .  A
C1387      C1388   1.397       .  A
C1387      F1394   1.358       .  S
C1388      C1389   1.407       .  A
C1388      F1393   1.358       .  S
C1389      C1390   1.409       .  A
C1390      F1391   1.358       .  S
C1395      C1396   1.411       .  A
C1395      C1400   1.397   1_455  A
C1395      F1402   1.358       .  S
C1396      C1397   1.411       .  A
C1397      C1398   1.401   1_455  A
C1397      F1404   1.358       .  S
C1398      C1399   1.412       .  A
C1398      F1403   1.358       .  S
C1399      C1400   1.410       .  A
C1400      F1401   1.358       .  S
C1405      C1406   1.412       .  A
C1405      C1410   1.399   1_556  A
C1405      F1412   1.358       .  S
C1406      C1407   1.411       .  A
C1407      C1408   1.400   1_556  A
C1407      F1414   1.358       .  S
C1408      C1409   1.410       .  A
C1408      F1413   1.358       .  S
C1409      C1410   1.411       .  A
C1410      F1411   1.358       .  S
C1415      C1416   1.411       .  A
C1415      C1420   1.398       .  A
C1415      F1422   1.358       .  S
C1416      C1417   1.411       .  A
C1417      C1418   1.397       .  A
C1417      F1424   1.358       .  S
C1418      C1419   1.411       .  A
C1418      F1423   1.358       .  S
C1419      C1420   1.409       .  A
C1420      F1421   1.358       .  S
C1425      C1426   1.410       .  A
C1425      C1430   1.397       .  A
C1425      F1432   1.358       .  S
C1426      C1427   1.408       .  A
C1427      C1428   1.394       .  A
C1427      F1434   1.358       .  S
C1428      C1429   1.411       .  A
C1428      F1433   1.358       .  S
C1429      C1430   1.410       .  A
C1430      F1431   1.358       .  S
C1435      C1436   1.411       .  A
C1435      C1440   1.395       .  A
C1435      F1442   1.358       .  S
C1436      C1437   1.411       .  A
C1437      C1438   1.397       .  A
C1437      F1444   1.358       .  S
C1438      C1439   1.410       .  A
C1438      F1443   1.358       .  S
C1439      C1440   1.409       .  A
C1440      F1441   1.358       .  S
C1445      C1446   1.411       .  A
C1445      C1450   1.397   1_655  A
C1445      F1452   1.358       .  S
C1446      C1447   1.411       .  A
C1447      C1448   1.399   1_655  A
C1447      F1454   1.358       .  S
C1448      C1449   1.410       .  A
C1448      F1453   1.358       .  S
C1449      C1450   1.411       .  A
C1450      F1451   1.358       .  S
C1455      C1456   1.412       .  A
C1455      C1460   1.401       .  A
C1455      F1462   1.358       .  S
C1456      C1457   1.410       .  A
C1457      C1458   1.400       .  A
C1457      F1464   1.358       .  S
C1458      C1459   1.408       .  A
C1458      F1463   1.358       .  S
C1459      C1460   1.408       .  A
C1460      F1461   1.358       .  S
C1465      C1466   1.409       .  A
C1465      C1470   1.397       .  A
C1465      F1472   1.358       .  S
C1466      C1467   1.410       .  A
C1467      C1468   1.398       .  A
C1467      F1474   1.358       .  S
C1468      C1469   1.410       .  A
C1468      F1473   1.358       .  S
C1469      C1470   1.410       .  A
C1470      F1471   1.358       .  S
C1475      C1476   1.411       .  A
C1475      C1480   1.394       .  A
C1475      F1482   1.358       .  S
C1476      C1477   1.410       .  A
C1477      C1478   1.398       .  A
C1477      F1484   1.358       .  S
C1478      C1479   1.411       .  A
C1478      F1483   1.358       .  S
C1479      C1480   1.409       .  A
C1480      F1481   1.358       .  S
C1485      C1486   1.411       .  A
C1485      C1490   1.398       .  A
C1485      F1492   1.358       .  S
C1486      C1487   1.411       .  A
C1487      C1488   1.400       .  A
C1487      F1494   1.358       .  S
C1488      C1489   1.410       .  A
C1488      F1493   1.358       .  S
C1489      C1490   1.410       .  A
C1490      F1491   1.358       .  S
C1495      C1496   1.410       .  A
C1495      C1500   1.394       .  A
C1495      F1502   1.358       .  S
C1496      C1497   1.410       .  A
C1497      C1498   1.396       .  A
C1497      F1504   1.358       .  S
C1498      C1499   1.411       .  A
C1498      F1503   1.358       .  S
C1499      C1500   1.408       .  A
C1500      F1501   1.358       .  S
C1505      C1506   1.410       .  A
C1505      C1510   1.398       .  A
C1505      F1512   1.358       .  S
C1506      C1507   1.410       .  A
C1507      C1508   1.396       .  A
C1507      F1514   1.358       .  S
C1508      C1509   1.410       .  A
C1508      F1513   1.358       .  S
C1509      C1510   1.409       .  A
C1510      F1511   1.358       .  S
C1515      C1516   1.411       .  A
C1515      C1520   1.395       .  A
C1515      F1522   1.358       .  S
C1516      C1517   1.410       .  A
C1517      C1518   1.396       .  A
C1517      F1524   1.358       .  S
C1518      C1519   1.410       .  A
C1518      F1523   1.358       .  S
C1519      C1520   1.410       .  A
C1520      F1521   1.358       .  S
C1525      C1526   1.411       .  A
C1525      C1530   1.401   1_655  A
C1525      F1532   1.358       .  S
C1526      C1527   1.412       .  A
C1527      C1528   1.398   1_655  A
C1527      F1534   1.358       .  S
C1528      C1529   1.410       .  A
C1528      F1533   1.358       .  S
C1529      C1530   1.410       .  A
C1530      F1531   1.358       .  S
C1535      C1536   1.410       .  A
C1535      C1540   1.399   1_556  A
C1535      F1542   1.358       .  S
C1536      C1537   1.412       .  A
C1537      C1538   1.399   1_556  A
C1537      F1544   1.358       .  S
C1538      C1539   1.411       .  A
C1538      F1543   1.358       .  S
C1539      C1540   1.411       .  A
C1540      F1541   1.358       .  S
C1545      C1546   1.409       .  A
C1545      C1550   1.399       .  A
C1545      F1552   1.358       .  S
C1546      C1547   1.410       .  A
C1547      C1548   1.394       .  A
C1547      F1554   1.358       .  S
C1548      C1549   1.408       .  A
C1548      F1553   1.358       .  S
C1549      C1550   1.411       .  A
C1550      F1551   1.358       .  S
C1555      C1556   1.410       .  A
C1555      C1560   1.398       .  A
C1555      F1562   1.358       .  S
C1556      C1557   1.410       .  A
C1557      C1558   1.401       .  A
C1557      F1564   1.358       .  S
C1558      C1559   1.411       .  A
C1558      F1563   1.358       .  S
C1559      C1560   1.412       .  A
C1560      F1561   1.358       .  S
C1565      C1566   1.410       .  A
C1565      C1570   1.399   1_565  A
C1565      F1572   1.358       .  S
C1566      C1567   1.412       .  A
C1567      C1568   1.397   1_565  A
C1567      F1574   1.358       .  S
C1568      C1569   1.409       .  A
C1568      F1573   1.358       .  S
C1569      C1570   1.412       .  A
C1570      F1571   1.358       .  S
C1575      C1576   1.410       .  A
C1575      C1580   1.397   1_556  A
C1575      F1582   1.358       .  S
C1576      C1577   1.412       .  A
C1577      C1578   1.397   1_556  A
C1577      F1584   1.358       .  S
C1578      C1579   1.410       .  A
C1578      F1583   1.358       .  S
C1579      C1580   1.410       .  A
C1580      F1581   1.358       .  S
C1585      C1586   1.410       .  A
C1585      C1590   1.396       .  A
C1585      F1592   1.358       .  S
C1586      C1587   1.410       .  A
C1587      C1588   1.394       .  A
C1587      F1594   1.358       .  S
C1588      C1589   1.410       .  A
C1588      F1593   1.358       .  S
C1589      C1590   1.408       .  A
C1590      F1591   1.358       .  S
C1595      C1596   1.409       .  A
C1595      C1600   1.402       .  A
C1595      F1602   1.358       .  S
C1596      C1597   1.410       .  A
C1597      C1598   1.400       .  A
C1597      F1604   1.358       .  S
C1598      C1599   1.409       .  A
C1598      F1603   1.357       .  S
C1599      C1600   1.409       .  A
C1600      F1601   1.358       .  S
C1605      C1606   1.409       .  A
C1605      C1610   1.398       .  A
C1605      F1612   1.358       .  S
C1606      C1607   1.411       .  A
C1607      C1608   1.396       .  A
C1607      F1614   1.358       .  S
C1608      C1609   1.410       .  A
C1608      F1613   1.358       .  S
C1609      C1610   1.410       .  A
C1610      F1611   1.358       .  S
C1615      C1616   1.410       .  A
C1615      C1620   1.397   1_655  A
C1615      F1622   1.358       .  S
C1616      C1617   1.410       .  A
C1617      C1618   1.396   1_655  A
C1617      F1624   1.358       .  S
C1618      C1619   1.410       .  A
C1618      F1623   1.358       .  S
C1619      C1620   1.410       .  A
C1620      F1621   1.358       .  S
C1625      C1626   1.410       .  A
C1625      C1630   1.395   1_565  A
C1625      F1632   1.358       .  S
C1626      C1627   1.412       .  A
C1627      C1628   1.401   1_565  A
C1627      F1634   1.358       .  S
C1628      C1629   1.411       .  A
C1628      F1633   1.358       .  S
C1629      C1630   1.411       .  A
C1630      F1631   1.358       .  S
C1635      C1636   1.409       .  A
C1635      C1640   1.398       .  A
C1635      F1642   1.358       .  S
C1636      C1637   1.409       .  A
C1637      C1638   1.400       .  A
C1637      F1644   1.358       .  S
C1638      C1639   1.411       .  A
C1638      F1643   1.358       .  S
C1639      C1640   1.409       .  A
C1640      F1641   1.358       .  S
C1645      C1646   1.410       .  A
C1645      C1650   1.395       .  A
C1645      F1652   1.358       .  S
C1646      C1647   1.410       .  A
C1647      C1648   1.396       .  A
C1647      F1654   1.358       .  S
C1648      C1649   1.409       .  A
C1648      F1653   1.358       .  S
C1649      C1650   1.411       .  A
C1650      F1651   1.358       .  S
C1655      C1656   1.410       .  A
C1655      C1660   1.399       .  A
C1655      F1662   1.358       .  S
C1656      C1657   1.411       .  A
C1657      C1658   1.400       .  A
C1657      F1664   1.358       .  S
C1658      C1659   1.409       .  A
C1658      F1663   1.358       .  S
C1659      C1660   1.412       .  A
C1660      F1661   1.358       .  S
