geometry optimzed in LAMMPS
_audit_creation_date              2020-11-30 
_audit_creation_method            'lammps2cif' 
_symmetry_space_group_name_H-M    'P1' 
_symmetry_Int_Tables_number       1 
_symmetry_cell_setting            triclinic 
loop_ 
_symmetry_equiv_pos_as_xyz 
  x,y,z 
_cell_length_a                    40.48399827 
_cell_length_b                    24.957873826575106 
_cell_length_c                    30.940716776582846 
_cell_angle_alpha                 89.87443171006254 
_cell_angle_beta                  89.91822314137741 
_cell_angle_gamma                 89.37523831054142 
loop_ 
_atom_site_label 
_atom_site_type_symbol 
_atom_site_fract_x 
_atom_site_fract_y 
_atom_site_fract_z 
_atom_site_charge 
O1          O  0.71556708  0.41272951  0.32498675    -0.77900
C2          C  0.62499590  0.45122483  0.26116692     0.83100
O3          O  0.64406732  0.43360956  0.44691818    -0.79000
O4          O  0.56072397  0.36417574  0.35032328    -0.80500
O5          O  0.65650923  0.26405833  0.28295293    -0.80300
O6          O  0.72081088  0.32365920  0.32637246    -0.78900
Zn7        Zn  0.66758407  0.42913583  0.34091361     1.55700
O8          O  0.60338054  0.28715535  0.28186353    -0.80300
Cd9        Cd  0.67258340  0.30003112  0.34030786     1.59700
Cd10       Cd  0.62780305  0.36343045  0.41593553     1.59600
O11         O  0.66998987  0.24594446  0.39202042    -0.80300
O12         O  0.64386393  0.36351863  0.35437872    -1.90800
Cd13       Cd  0.60422450  0.35664909  0.31699893     1.59900
O14         O  0.64292580  0.29062569  0.44447008    -0.80300
O15         O  0.60543479  0.41309611  0.26942348    -0.78900
C16         C  0.65621150  0.47687642  0.43159045     0.83600
C17         C  0.73267989  0.37007405  0.31951092     0.83300
O18         O  0.64860281  0.46314581  0.28656113    -0.77900
C19         C  0.62783486  0.26153604  0.26603155     0.84100
O20         O  0.66513350  0.48096350  0.39208279    -0.78000
C21         C  0.65770497  0.24861674  0.43010565     0.84200
C22         C  0.55353265  0.36715733  0.39023488     0.84500
O23         O  0.57569066  0.36672574  0.41959249    -0.80400
C24         C  0.56888179  0.10912318  0.05184322     0.87100
C25         C  0.57433931  0.15728787  0.08210665    -0.53200
C26         C  0.60476203  0.15854832  0.10129550     0.10000
C27         C  0.62757848  0.11236199  0.08677449     0.20900
C28         C  0.59702118  0.11172165  0.01884885    -0.53900
C29         C  0.62805408  0.11298949  0.03665993     0.10100
C30         C  0.57753291  0.06064995  0.08107313    -0.53400
C31         C  0.60800010  0.06265279  0.10010081     0.10700
H32         H  0.55453883  0.18477167  0.09109865     0.15200
H33         H  0.65246270  0.11352774  0.10137630     0.00900
H34         H  0.59282201  0.11168708  0.98419165     0.15500
H35         H  0.55930586  0.03201123  0.09158778     0.15300
C36         C  0.65987397  0.11332384  0.50801935    -0.01900
O37         O  0.76711868  0.07882915  0.07407496    -0.77900
C38         C  0.85882246  0.03691135  0.51015886     0.83100
O39         O  0.83825836  0.05796884  0.19558040    -0.79000
O40         O  0.92211369  0.12946960  0.10005990    -0.80500
O41         O  0.82503213  0.22581564  0.03173351    -0.80300
O42         O  0.76137138  0.16769631  0.07761615    -0.78900
Zn43       Zn  0.81517760  0.06224144  0.08927521     1.55700
O44         O  0.87876158  0.20028347  0.52774845    -0.80300
Cd45       Cd  0.80981678  0.19107558  0.08976869     1.59700
Cd46       Cd  0.85438900  0.12854173  0.16489297     1.59600
O47         O  0.81288279  0.24619460  0.14051950    -0.80300
O48         O  0.83882490  0.12765549  0.10317955    -1.90800
Cd49       Cd  0.87868442  0.13345997  0.06585813     1.59900
O50         O  0.83895225  0.20109337  0.19350906    -0.80300
O51         O  0.87913096  0.07384201  0.51888539    -0.78900
C52         C  0.82615814  0.01483947  0.18011206     0.83600
C53         C  0.74966393  0.12138948  0.07012439     0.83300
O54         O  0.83429193  0.02760370  0.03496395    -0.77900
C55         C  0.85434409  0.22694490  0.51289135     0.84100
O56         O  0.81746991  0.01088067  0.14057450    -0.78000
C57         C  0.82472168  0.24342823  0.17878241     0.84200
C58         C  0.92888548  0.12738316  0.14016002     0.84500
O59         O  0.90639420  0.12701222  0.16913291    -0.80400
C60         C  0.91292521  0.37987817  0.29981142     0.87100
C61         C  0.90670695  0.33040108  0.32856145    -0.53200
C62         C  0.87626717  0.32937359  0.34781143     0.10000
C63         C  0.85404494  0.37684678  0.33457180     0.20900
C64         C  0.88489801  0.37968926  0.26669404    -0.53900
C65         C  0.85377092  0.37817795  0.28442969     0.10100
C66         C  0.90472928  0.42709012  0.33038780    -0.53400
C67         C  0.87413875  0.42534628  0.34910345     0.10700
H68         H  0.92610711  0.30200464  0.33714146     0.15200
H69         H  0.82916024  0.37581557  0.34932570     0.00900
H70         H  0.88923750  0.38091766  0.23206520     0.15500
H71         H  0.92320983  0.45509645  0.34123790     0.15300
C72         C  0.82250921  0.37864880  0.25653398    -0.01900
O73         O  0.32740064  0.02502679  0.13405752    -0.77900
C74         C  0.24906601  0.12702763  0.09997077     0.83100
O75         O  0.33910599  0.05399158  0.97376436    -0.79000
O76         O  0.31502098  0.24366849  0.02706904    -0.80500
O77         O  0.37751444  0.18192535  0.14763188    -0.80300
O78         O  0.37820055  0.05600086  0.14258572    -0.78900
Zn79       Zn  0.31142156  0.06116402  0.07846916     1.55700
O80         O  0.33071852  0.22680000  0.13483024    -0.80300
Cd81       Cd  0.37808275  0.12134981  0.10328896     1.59700
Cd82       Cd  0.35512269  0.12452940  0.00409856     1.59600
O83         O  0.42184481  0.12034584  0.07013272    -0.80300
O84         O  0.33838705  0.12379063  0.06551140    -1.90800
Cd85       Cd  0.31230841  0.19051074  0.07923353     1.59900
O86         O  0.40730723  0.12143961  0.00071889    -0.80700
O87         O  0.26345495  0.17186423  0.09494235    -0.78900
C88         C  0.32526163  0.01185773  0.98863479     0.83600
C89         C  0.35464140  0.02635100  0.15463180     0.83300
O90         O  0.26378846  0.08251309  0.09262445    -0.77900
C91         C  0.35643271  0.21789587  0.15769743     0.84100
O92         O  0.31426662  0.00908078  0.02736173    -0.78000
C93         C  0.42930881  0.11964218  0.03025190     0.84200
C94         C  0.32646322  0.23992349  0.98864944     0.84500
O95         O  0.34034829  0.19707442  0.97439362    -0.80400
C96         C  0.41420555  0.38037257  0.36854811     0.87100
C97         C  0.38594795  0.37685326  0.40118596    -0.53200
C98         C  0.35500915  0.37742938  0.38311833     0.10000
C99         C  0.35569613  0.38082529  0.33301838     0.20900
C100        C  0.40830743  0.33414801  0.33633660    -0.53900
C101        C  0.37778313  0.33437108  0.31726279     0.10100
C102        C  0.40622818  0.43080325  0.34134870    -0.53400
C103        C  0.37616297  0.43021755  0.32117236     0.10700
H104        H  0.39000378  0.37475997  0.43583955     0.15200
H105        H  0.33080835  0.38118876  0.31847080     0.00900
H106        H  0.42805261  0.30731441  0.32611650     0.15500
H107        H  0.42448896  0.46066084  0.33340495     0.15300
C108        C  0.32356230  0.37619071  0.41078672    -0.01900
O109        O  0.21848672  0.33028870  0.34419946    -0.77900
C110        C  0.12618587  0.27639400  0.40676747     0.83100
O111        O  0.14300275  0.30270858  0.22678282    -0.79000
O112        O  0.06037834  0.38035732  0.32246308    -0.80500
O113        O  0.15299345  0.47367851  0.38739068    -0.80300
O114        O  0.21876694  0.41964552  0.34361093    -0.78900
Zn115      Zn  0.17061891  0.31002542  0.33147185     1.55700
O116        O  0.10758597  0.42779374  0.40283451    -0.80300
Cd117      Cd  0.16972721  0.43886475  0.33050771     1.59700
Cd118      Cd  0.12741425  0.37458482  0.25616200     1.59600
O119        O  0.16659167  0.49283866  0.27932503    -0.80300
O120        O  0.14377126  0.37305685  0.31746745    -1.90800
Cd121      Cd  0.10411493  0.37154965  0.35538649     1.59900
O122        O  0.14315597  0.44614296  0.22589327    -0.80300
O123        O  0.10196696  0.30331353  0.39176266    -0.78900
C124        C  0.15668527  0.26017887  0.24204008     0.83600
C125        C  0.23330095  0.37468569  0.34939936     0.83300
O126        O  0.15433255  0.27648472  0.38813152    -0.77900
C127        C  0.12874002  0.46313375  0.41220929     0.84100
O128        O  0.16752516  0.25729937  0.28084265    -0.78000
C129        C  0.15632908  0.48896002  0.24048078     0.84200
C130        C  0.05310695  0.37916494  0.28251153     0.84500
O131        O  0.07523950  0.37559396  0.25314528    -0.80400
C132        C  0.06853852  0.12312626  0.12244387     0.87100
C133        C  0.07659626  0.07542094  0.09226660    -0.53200
C134        C  0.10696227  0.07723774  0.07290282     0.10000
C135        C  0.12701542  0.12619458  0.08664246     0.20900
C136        C  0.09689667  0.12419597  0.15504766    -0.53900
C137        C  0.12782725  0.12556647  0.13675708     0.10100
C138        C  0.07423047  0.17214313  0.09296706    -0.53400
C139        C  0.10448621  0.17328121  0.07322409     0.10700
H140        H  0.05809032  0.04718460  0.08194572     0.15200
H141        H  0.15179689  0.12724145  0.07167065     0.00900
H142        H  0.09291827  0.12339731  0.18975999     0.15500
H143        H  0.05464970  0.20036538  0.08472222     0.15300
C144        C  0.15940312  0.12512399  0.16408845    -0.01900
C145        C  0.15907124  0.21306369  0.21479988    -0.12700
C146        C  0.15962928  0.17318187  0.19231732    -0.14300
C147        C  0.15904350  0.03549965  0.21309603    -0.12700
C148        C  0.16004965  0.07586672  0.19111535    -0.14300
C149        C  0.08940681  0.23736354  0.46310846    -0.12800
C150        C  0.12148146  0.24788754  0.44832964     0.09400
C151        C  0.14768969  0.23847612  0.97767617    -0.12800
C152        C  0.14209118  0.21690032  0.01889503    -0.12800
C153        C  0.11003606  0.20293915  0.03200414     0.09400
C154        C  0.08419417  0.21580551  0.50412775    -0.12800
H155        H  0.06818139  0.24563982  0.44278773     0.13400
H156        H  0.17253444  0.24968877  0.96866616     0.13400
H157        H  0.16287998  0.21082058  0.04038923     0.13400
H158        H  0.05913189  0.20619273  0.51315692     0.13400
C159        C  0.10401012  0.46995887  0.98704011    -0.12800
C160        C  0.12554246  0.49063526  0.45409807     0.09400
C161        C  0.13784687  0.04264579  0.46057993    -0.12800
C162        C  0.13411971  0.06911296  0.50000049    -0.12800
C163        C  0.11449358  0.04594251  0.03298571     0.09400
C164        C  0.10019606  0.99560375  0.02617383    -0.12800
H165        H  0.09163851  0.43215137  0.98233364     0.13400
H166        H  0.15321638  0.06030775  0.43578867     0.13400
H167        H  0.14628380  0.10703460  0.50354391     0.13400
H168        H  0.08608496  0.97626724  0.05139685     0.13400
C169        C  0.29307096  0.37526652  0.38436292    -0.12700
C170        C  0.26676330  0.37436852  0.36565495    -0.14300
C171        C  0.18988328  0.12571630  0.13730761    -0.12700
C172        C  0.21593939  0.12644403  0.11776689    -0.14300
C173        C  0.32384748  0.32730249  0.43821622    -0.12700
C174        C  0.32449474  0.28701248  0.46032953    -0.14300
C175        C  0.32228813  0.42476087  0.43854195    -0.12700
C176        C  0.32245355  0.46500987  0.46065624    -0.14300
C177        C  0.39274027  0.48798005  0.20985598    -0.12800
C178        C  0.36072047  0.49886121  0.19475298     0.09400
C179        C  0.33242032  0.98945366  0.22400605    -0.12800
C180        C  0.33875136  0.46915741  0.26396110    -0.12800
C181        C  0.37085901  0.45819370  0.27908692     0.09400
C182        C  0.39774905  0.46746630  0.25121921    -0.12800
H183        H  0.41406477  0.49548357  0.18961755     0.13400
H184        H  0.30764078  0.00151718  0.21474947     0.13400
H185        H  0.31752148  0.46221673  0.28444809     0.13400
H186        H  0.42280015  0.45758468  0.26065067     0.13400
C187        C  0.38314742  0.22744077  0.23001048    -0.12800
C188        C  0.36151510  0.24787882  0.19831558     0.09400
C189        C  0.34385037  0.29522962  0.20694143    -0.12800
C190        C  0.34843916  0.32239825  0.24589252    -0.12800
C191        C  0.37048899  0.30254855  0.27753562     0.09400
C192        C  0.38736680  0.25414497  0.26920705    -0.12800
H193        H  0.39659923  0.19026324  0.22477583     0.13400
H194        H  0.32684447  0.31176437  0.18330250     0.13400
H195        H  0.33518949  0.35969483  0.25017144     0.13400
H196        H  0.40397676  0.23674051  0.29286699     0.13400
C197        C  0.96553691  0.33357088  0.27141158    -0.12800
C198        C  0.94808832  0.38145887  0.28076440     0.09400
C199        C  0.96570515  0.42992759  0.27820085    -0.12800
C200        C  0.00019462  0.42960994  0.27455260    -0.12800
C201        C  0.01771171  0.38109147  0.27134462     0.09400
C202        C  0.00006584  0.33332392  0.26743981    -0.12800
H203        H  0.95286161  0.29563220  0.27057703     0.13400
H204        H  0.95323802  0.46818906  0.28186054     0.13400
H205        H  0.01334346  0.46703471  0.27718179     0.13400
H206        H  0.01313767  0.29536921  0.26475915     0.13400
C207        C  0.82326731  0.46855485  0.20784894    -0.12700
C208        C  0.82198548  0.42811634  0.22972831    -0.14300
C209        C  0.82290515  0.29065257  0.20593623    -0.12700
C210        C  0.82259981  0.33071862  0.22819084    -0.14300
C211        C  0.84455633  0.45984656  0.46246024    -0.12800
C212        C  0.86309195  0.00708129  0.46915118     0.09400
C213        C  0.88302521  0.02806873  0.43604601    -0.12800
C214        C  0.87996649  0.50746528  0.39509784    -0.12800
C215        C  0.86628463  0.45662592  0.38886550     0.09400
C216        C  0.84799955  0.43358033  0.42283484    -0.12800
H217        H  0.83036513  0.43980192  0.98684291     0.13400
H218        H  0.89604676  0.06531081  0.44055951     0.13400
H219        H  0.90139185  0.01950779  0.37162531     0.13400
H220        H  0.83721164  0.39449331  0.41974187     0.13400
C221        C  0.83281967  0.26402653  0.44288155    -0.12800
C222        C  0.85909154  0.25647920  0.47200419     0.09400
C223        C  0.89098792  0.27144281  0.45946333    -0.12800
C224        C  0.89662499  0.29343736  0.41875423    -0.12800
C225        C  0.87057887  0.30021198  0.38910395     0.09400
C226        C  0.83856489  0.28539228  0.40166097    -0.12800
H227        H  0.80805218  0.25192841  0.45148437     0.13400
H228        H  0.91170096  0.26609089  0.48123563     0.13400
H229        H  0.92137908  0.30638268  0.41111396     0.13400
H230        H  0.81796604  0.29059250  0.37970916     0.13400
C231        C  0.98099803  0.07544480  0.14831881    -0.12800
C232        C  0.96410579  0.12446505  0.15197557     0.09400
C233        C  0.98233534  0.17154694  0.15658903    -0.12800
C234        C  0.01686794  0.17017512  0.15262210    -0.12800
C235        C  0.03361899  0.12197509  0.14222149     0.09400
C236        C  0.01543913  0.07405066  0.14435370    -0.12800
H237        H  0.96737215  0.03852543  0.14525666     0.13400
H238        H  0.96974258  0.20986173  0.15973200     0.13400
H239        H  0.03007126  0.20762547  0.15380640     0.13400
H240        H  0.02737002  0.03544851  0.14016654     0.13400
C241        C  0.69006203  0.11442679  0.03504487    -0.12700
C242        C  0.71637093  0.11721943  0.05363367    -0.14300
C243        C  0.51466163  0.06174216  0.03191377    -0.12800
C244        C  0.53391596  0.10858722  0.03232940     0.09400
C245        C  0.51850396  0.15696981  0.01920623    -0.12800
C246        C  0.48409564  0.16006938  0.01370876    -0.12800
C247        C  0.46469857  0.11442656  0.01961812     0.09400
C248        C  0.48041019  0.06487430  0.02643165    -0.12800
H249        H  0.52547281  0.02270454  0.03799045     0.13400
H250        H  0.53262708  0.19347433  0.01710573     0.13400
H251        H  0.47245033  0.19880018  0.00841325     0.13400
H252        H  0.46589031  0.02901196  0.03064803     0.13400
C253        C  0.79183046  0.37725612  0.28278812    -0.12700
C254        C  0.76571114  0.37436944  0.30195704    -0.14300
C255        C  0.66066313  0.06397970  0.48115366    -0.12700
C256        C  0.65988231  0.02342575  0.45944650    -0.14300
C257        C  0.65957677  0.20151248  0.45745662    -0.12700
C258        C  0.65984459  0.16140110  0.47974693    -0.14300
C259        C  0.63765220  0.02830461  0.21337366    -0.12800
C260        C  0.62088785  0.48023065  0.21987353     0.09400
C261        C  0.60155461  0.45826442  0.18672973    -0.12800
C262        C  0.60141282  0.98096616  0.14693111    -0.12800
C263        C  0.61563477  0.03135433  0.14002401     0.09400
C264        C  0.63429312  0.05418260  0.17359738    -0.12800
H265        H  0.65183060  0.04720313  0.23866682     0.13400
H266        H  0.58905282  0.42051922  0.19132507     0.13400
H267        H  0.58338869  0.46611027  0.12222653     0.13400
H268        H  0.64550010  0.09294177  0.17021629     0.13400
C269        C  0.59084706  0.21537255  0.21371719    -0.12800
C270        C  0.62271729  0.23159863  0.22534059     0.09400
C271        C  0.64858422  0.22497788  0.19538798    -0.12800
C272        C  0.64252886  0.20334916  0.15440045    -0.12800
C273        C  0.61058197  0.18736935  0.14271528     0.09400
C274        C  0.58489989  0.19315458  0.17312913    -0.12800
H275        H  0.57039999  0.22001543  0.23606744     0.13400
H276        H  0.67329150  0.23804478  0.20315136     0.13400
H277        H  0.66285957  0.19902427  0.13185971     0.13400
H278        H  0.56022477  0.17944343  0.16606056     0.13400
C279        C  0.49888819  0.32543576  0.40288718    -0.12800
C280        C  0.51819997  0.37166003  0.40118446     0.09400
C281        C  0.50243378  0.42177679  0.39851438    -0.12800
C282        C  0.46816112  0.42536889  0.39285793    -0.12800
C283        C  0.44905273  0.37868886  0.38838753     0.09400
C284        C  0.46454952  0.32900464  0.39751792    -0.12800
H285        H  0.51059788  0.28627517  0.40491334     0.13400
H286        H  0.51690481  0.45802048  0.39744104     0.13400
H287        H  0.45718046  0.46482570  0.38967048     0.13400
H288        H  0.45056623  0.29229479  0.39666377     0.13400
O289        O  0.71605879  0.41148990  0.82535661    -0.77900
C290        C  0.62577931  0.45020535  0.76144290     0.83100
O291        O  0.64408315  0.43338540  0.94695096    -0.79000
O292        O  0.56097111  0.36366351  0.84996819    -0.80500
O293        O  0.65706398  0.26262580  0.78365298    -0.80300
O294        O  0.72130853  0.32244002  0.82703410    -0.78900
Zn295      Zn  0.66813092  0.42807511  0.84121324     1.55700
O296        O  0.60402225  0.28622360  0.78186913    -0.80300
Cd297      Cd  0.67297601  0.29900595  0.84097085     1.59700
Cd298      Cd  0.62777327  0.36309482  0.91609010     1.59600
O299        O  0.67006216  0.24539154  0.89297534    -0.80300
O300        O  0.64421744  0.36262887  0.85468838    -1.90800
Cd301      Cd  0.60469994  0.35564801  0.81711337     1.59900
O302        O  0.64261261  0.29037261  0.94495158    -0.80300
O303        O  0.60621466  0.41206892  0.76962882    -0.78900
C304        C  0.65651893  0.47640454  0.93156553     0.83600
C305        C  0.73317434  0.36883179  0.81999498     0.83300
O306        O  0.64933402  0.46217855  0.78688354    -0.77900
C307        C  0.62849694  0.26030540  0.76639301     0.84100
O308        O  0.66571893  0.48010315  0.89215517    -0.78000
C309        C  0.65749532  0.24829328  0.93089960     0.84200
C310        C  0.55358208  0.36721920  0.88979132     0.84500
O311        O  0.57561178  0.36685123  0.91932142    -0.80400
C312        C  0.56931829  0.11096338  0.55111412     0.87100
C313        C  0.57525343  0.15881445  0.58155977    -0.53200
C314        C  0.60567692  0.15918988  0.60079064     0.10000
C315        C  0.62805668  0.11259306  0.58601572     0.20900
C316        C  0.59745392  0.11301790  0.51811107    -0.53900
C317        C  0.62850082  0.11354558  0.53589653     0.10100
C318        C  0.57752536  0.06212581  0.58018903    -0.53400
C319        C  0.60802844  0.06327905  0.59925390     0.10700
H320        H  0.55569531  0.18661282  0.59080686     0.15200
H321        H  0.65299052  0.11316383  0.60048059     0.00900
H322        H  0.59323429  0.11329493  0.48345666     0.15500
H323        H  0.55897213  0.03389924  0.59047795     0.15300
C324        C  0.65944524  0.11307005  0.00882826    -0.01900
O325        O  0.76739615  0.07898858  0.57372180    -0.77900
C326        C  0.85877357  0.03800593  0.01040919     0.83100
O327        O  0.83857812  0.05882170  0.69514859    -0.79000
O328        O  0.92260893  0.12905878  0.59953457    -0.80500
O329        O  0.82601909  0.22605218  0.53096283    -0.80300
O330        O  0.76198720  0.16795194  0.57623264    -0.78900
Zn331      Zn  0.81541230  0.06234889  0.58891391     1.55700
O332        O  0.87803657  0.20159407  0.02904298    -0.80300
Cd333      Cd  0.81040413  0.19121941  0.58874283     1.59700
Cd334      Cd  0.85474035  0.12911131  0.66418400     1.59600
O335        O  0.81313078  0.24650631  0.63943269    -0.80300
O336        O  0.83927383  0.12771062  0.60243457    -1.90800
Cd337      Cd  0.87921198  0.13256076  0.56511439     1.59900
O338        O  0.83912894  0.20167320  0.69259538    -0.80300
O339        O  0.87880652  0.07528146  0.01923888    -0.78900
C340        C  0.82632563  0.01569272  0.67991182     0.83600
C341        C  0.75011290  0.12163993  0.56924676     0.83300
O342        O  0.83426588  0.02710373  0.53473837    -0.77900
C343        C  0.85338900  0.22731959  0.01379174     0.84100
O344        O  0.81759762  0.01146161  0.64042016    -0.78000
C345        C  0.82484472  0.24389473  0.67776271     0.84200
C346        C  0.92928493  0.12794488  0.63969470     0.84500
O347        O  0.90672349  0.12800486  0.66857692    -0.80400
C348        C  0.91335433  0.37181748  0.79896112     0.87100
C349        C  0.90526953  0.32215244  0.82679396    -0.53200
C350        C  0.87501036  0.32395980  0.84652046     0.10000
C351        C  0.85466229  0.37385507  0.83429695     0.20900
C352        C  0.88521018  0.37581281  0.76617052    -0.53900
C353        C  0.85417148  0.37634868  0.78418281     0.10100
C354        C  0.90728607  0.41872436  0.83056332    -0.53400
C355        C  0.87676014  0.41972625  0.84962080     0.10700
H356        H  0.92357644  0.29209679  0.83567049     0.15200
H357        H  0.82979458  0.37467114  0.84911921     0.00900
H358        H  0.88940053  0.37732749  0.73151570     0.15500
H359        H  0.92702579  0.44474024  0.84094021     0.15300
C360        C  0.82279311  0.37823322  0.75653352    -0.01900
O361        O  0.32826113  0.02611481  0.63383115    -0.77900
C362        C  0.24949168  0.12791012  0.60016955     0.83100
O363        O  0.33923523  0.05437147  0.47376434    -0.79000
O364        O  0.31522104  0.24434280  0.52672070    -0.80500
O365        O  0.37761553  0.18287955  0.64768696    -0.80300
O366        O  0.37918597  0.05680126  0.64186822    -0.78900
Zn367      Zn  0.31187601  0.06216895  0.57852668     1.55700
O368        O  0.33095804  0.22799734  0.63466562    -0.80300
Cd369      Cd  0.37855681  0.12269092  0.60300204     1.59700
Cd370      Cd  0.35534083  0.12507945  0.50386422     1.59600
O371        O  0.42229048  0.12323887  0.56969781    -0.80300
O372        O  0.33876166  0.12477211  0.56535002    -1.90800
Cd373      Cd  0.31261124  0.19147086  0.57906276     1.59900
O374        O  0.40755128  0.12222968  0.50035786    -0.80700
O375        O  0.26376327  0.17278818  0.59480990    -0.78900
C376        C  0.32530736  0.01240167  0.48881062     0.83600
C377        C  0.35563498  0.02721806  0.65410705     0.83300
O378        O  0.26431202  0.08342533  0.59306964    -0.77900
C379        C  0.35658636  0.21895879  0.65767714     0.84100
O380        O  0.31438731  0.00990995  0.52757386    -0.78000
C381        C  0.42965425  0.12180219  0.52979271     0.84200
C382        C  0.32653137  0.24037271  0.48824783     0.84500
O383        O  0.34038936  0.19746281  0.47405800    -0.80400
C384        C  0.41398150  0.38202538  0.86862872     0.87100
C385        C  0.38591115  0.37766106  0.90150537    -0.53200
C386        C  0.35487609  0.37762004  0.88369433     0.10000
C387        C  0.35530015  0.38103396  0.83359108     0.20900
C388        C  0.40837096  0.33568988  0.83643772    -0.53900
C389        C  0.37775874  0.33516185  0.81756700     0.10100
C390        C  0.40532868  0.43232652  0.84158197    -0.53400
C391        C  0.37522262  0.43089052  0.82158618     0.10700
H392        H  0.39014816  0.37568668  0.93612463     0.15200
H393        H  0.33033185  0.38096867  0.81927574     0.00900
H394        H  0.42835016  0.30932115  0.82620141     0.15500
H395        H  0.42322975  0.46251350  0.83310520     0.15300
C396        C  0.32353941  0.37617437  0.91161172    -0.01900
O397        O  0.21823947  0.33055896  0.84543753    -0.77900
C398        C  0.12604341  0.27654395  0.90794061     0.83100
O399        O  0.14372391  0.30280206  0.72754622    -0.79000
O400        O  0.06001770  0.37670278  0.82204945    -0.80500
O401        O  0.15183508  0.47384187  0.88830517    -0.80300
O402        O  0.21830117  0.41992658  0.84532451    -0.78900
Zn403      Zn  0.17044195  0.31006742  0.83255181     1.55700
O404        O  0.10555713  0.42953119  0.90231669    -0.80300
Cd405      Cd  0.16925997  0.43899964  0.83173389     1.59700
Cd406      Cd  0.12773892  0.37446101  0.75686017     1.59600
O407        O  0.16637739  0.49291296  0.78037897    -0.80300
O408        O  0.14350209  0.37304833  0.81846578    -1.90800
Cd409      Cd  0.10351296  0.37155863  0.85591306     1.59900
O410        O  0.14342576  0.44598669  0.72672725    -0.80300
O411        O  0.10199078  0.30440380  0.89362514    -0.78900
C412        C  0.15718884  0.26018987  0.74295084     0.83600
C413        C  0.23294982  0.37500160  0.85088365     0.83300
O414        O  0.15406936  0.27615188  0.88899488    -0.77900
C415        C  0.12688461  0.46439524  0.91224141     0.84100
O416        O  0.16766742  0.25722782  0.78191718    -0.78000
C417        C  0.15639295  0.48889520  0.74140883     0.84200
C418        C  0.05319825  0.37585217  0.78195489     0.84500
O419        O  0.07566521  0.37447749  0.75293814    -0.80400
C420        C  0.06896317  0.12636335  0.62277530     0.87100
C421        C  0.07634657  0.07884740  0.59215796    -0.53200
C422        C  0.10673192  0.07972512  0.57278646     0.10000
C423        C  0.12740738  0.12790187  0.58681187     0.20900
C424        C  0.09735867  0.12600907  0.65530350    -0.53900
C425        C  0.12827165  0.12678937  0.63696329     0.10100
C426        C  0.07526088  0.17559559  0.59371985    -0.53400
C427        C  0.10542703  0.17583779  0.57364413     0.10700
H428        H  0.05741947  0.05127192  0.58195044     0.15200
H429        H  0.15221681  0.12828806  0.57195141     0.00900
H430        H  0.09341103  0.12497472  0.69001883     0.15500
H431        H  0.05603209  0.20453800  0.58577892     0.15300
C432        C  0.15985358  0.12569298  0.66431556    -0.01900
C433        C  0.15969914  0.21310835  0.71566102    -0.12700
C434        C  0.16023229  0.17340782  0.69295271    -0.14300
C435        C  0.15940400  0.03552717  0.71271079    -0.12700
C436        C  0.16037561  0.07609029  0.69095031    -0.14300
C437        C  0.08923799  0.23368153  0.96228327    -0.12800
C438        C  0.12124601  0.24722690  0.94903680     0.09400
C439        C  0.14830857  0.23696463  0.47589885    -0.12800
C440        C  0.14303891  0.21619192  0.51747889    -0.12800
C441        C  0.11090244  0.20502204  0.53206580     0.09400
C442        C  0.08373230  0.21138560  0.00297956    -0.12800
H443        H  0.06834315  0.24020013  0.94100580     0.13400
H444        H  0.17327935  0.24581582  0.46577307     0.13400
H445        H  0.16417175  0.20851859  0.53805685     0.13400
H446        H  0.05885683  0.19945402  0.01102651     0.13400
C447        C  0.10778179  0.46662925  0.48792926    -0.12800
C448        C  0.12316502  0.49250064  0.95386004     0.09400
C449        C  0.13713202  0.04245276  0.95988467    -0.12800
C450        C  0.13338314  0.06860018  0.99943072    -0.12800
C451        C  0.11406061  0.04791999  0.53301293     0.09400
C452        C  0.09856389  0.99860920  0.52576356    -0.12800
H453        H  0.09645327  0.42787571  0.48365500     0.13400
H454        H  0.15153306  0.06121992  0.93462564     0.13400
H455        H  0.14454135  0.10739227  0.00269452     0.13400
H456        H  0.08357522  0.98020869  0.55055904     0.13400
C457        C  0.29289320  0.37540626  0.88545578    -0.12700
C458        C  0.26646495  0.37469727  0.86700959    -0.14300
C459        C  0.19032998  0.12641516  0.63754689    -0.12700
C460        C  0.21638491  0.12725835  0.61801485    -0.14300
C461        C  0.32394888  0.32715714  0.93890795    -0.12700
C462        C  0.32454951  0.28674097  0.96088766    -0.14300
C463        C  0.32236661  0.42465436  0.93947546    -0.12700
C464        C  0.32260933  0.46496369  0.96151453    -0.14300
C465        C  0.39173066  0.48511838  0.70916691    -0.12800
C466        C  0.35977163  0.49713822  0.69440827     0.09400
C467        C  0.33338631  0.98947276  0.72312413    -0.12800
C468        C  0.33784825  0.46924875  0.76413554    -0.12800
C469        C  0.36992496  0.45768748  0.77904907     0.09400
C470        C  0.39673769  0.46519011  0.75070119    -0.12800
H471        H  0.41300760  0.49151122  0.68858300     0.13400
H472        H  0.30858848  0.00127171  0.71374214     0.13400
H473        H  0.31669119  0.46330230  0.78497291     0.13400
H474        H  0.42170828  0.45454442  0.76001643     0.13400
C475        C  0.38393905  0.22917356  0.72956788    -0.12800
C476        C  0.36166737  0.24892704  0.69834371     0.09400
C477        C  0.34340863  0.29553439  0.70750781    -0.12800
C478        C  0.34796985  0.32258906  0.74652548    -0.12800
C479        C  0.37061399  0.30339333  0.77772409     0.09400
C480        C  0.38815581  0.25576333  0.76882324    -0.12800
H481        H  0.39791563  0.19259727  0.72393192     0.13400
H482        H  0.32591104  0.31156186  0.68426289     0.13400
H483        H  0.33418035  0.35929888  0.75119003     0.13400
H484        H  0.40526354  0.23882853  0.79208675     0.13400
C485        C  0.96708121  0.32392561  0.77544120    -0.12800
C486        C  0.94841438  0.37175130  0.77958646     0.09400
C487        C  0.96474658  0.42054177  0.77163982    -0.12800
C488        C  0.99927653  0.42193320  0.76802055    -0.12800
C489        C  0.01795182  0.37440334  0.77022273     0.09400
C490        C  0.00151619  0.32533056  0.77150574    -0.12800
H491        H  0.95552673  0.28519471  0.77787530     0.13400
H492        H  0.95118078  0.45815498  0.77214436     0.13400
H493        H  0.01150018  0.46030208  0.76682645     0.13400
H494        H  0.01550078  0.28810010  0.77279039     0.13400
C495        C  0.82370882  0.46925444  0.70917662    -0.12700
C496        C  0.82248316  0.42839799  0.73057013    -0.14300
C497        C  0.82281686  0.29113029  0.70490403    -0.12700
C498        C  0.82249821  0.33097319  0.72743158    -0.14300
C499        C  0.84621551  0.45679634  0.96225725    -0.12800
C500        C  0.86330302  0.00840308  0.96934916     0.09400
C501        C  0.88300530  0.02995993  0.93623945    -0.12800
C502        C  0.88655982  0.49935628  0.89752233    -0.12800
C503        C  0.87012009  0.45102732  0.88984655     0.09400
C504        C  0.84964134  0.43038989  0.92268185    -0.12800
H505        H  0.83074603  0.44080621  0.48816415     0.13400
H506        H  0.89566604  0.06752794  0.94078390     0.13400
H507        H  0.90133004  0.02202592  0.87173354     0.13400
H508        H  0.83680056  0.39312177  0.91871543     0.13400
C509        C  0.83155943  0.26302388  0.94342889    -0.12800
C510        C  0.85793507  0.25613945  0.97251986     0.09400
C511        C  0.88981847  0.27058094  0.95949203    -0.12800
C512        C  0.89539138  0.29093525  0.91823685    -0.12800
C513        C  0.86928347  0.29665049  0.88856746     0.09400
C514        C  0.83722859  0.28294698  0.90170881    -0.12800
H515        H  0.80678318  0.25143181  0.95244212     0.13400
H516        H  0.91060479  0.26583811  0.98122668     0.13400
H517        H  0.92016086  0.30335916  0.91006916     0.13400
H518        H  0.81658802  0.28783135  0.87977088     0.13400
C519        C  0.98192753  0.07766918  0.64984870    -0.12800
C520        C  0.96448404  0.12635613  0.65175861     0.09400
C521        C  0.98216612  0.17415271  0.65501679    -0.12800
C522        C  0.01670117  0.17364431  0.65129994    -0.12800
C523        C  0.03405106  0.12546863  0.64262389     0.09400
C524        C  0.01641463  0.07712817  0.64626595    -0.12800
H525        H  0.96873144  0.04022674  0.64782777     0.13400
H526        H  0.96913953  0.21222201  0.65692000     0.13400
H527        H  0.02943320  0.21154136  0.65161646     0.13400
H528        H  0.02885984  0.03875774  0.64317792     0.13400
C529        C  0.69051035  0.11470860  0.53418420    -0.12700
C530        C  0.71682594  0.11751144  0.55274767    -0.14300
C531        C  0.51518429  0.06433336  0.52981440    -0.12800
C532        C  0.53432879  0.11123779  0.53160110     0.09400
C533        C  0.51877572  0.16009528  0.51996241    -0.12800
C534        C  0.48435962  0.16323603  0.51462178    -0.12800
C535        C  0.46506702  0.11722374  0.51903136     0.09400
C536        C  0.48091141  0.06748359  0.52433058    -0.12800
H537        H  0.52614307  0.02516981  0.53492373     0.13400
H538        H  0.53279466  0.19676360  0.51882181     0.13400
H539        H  0.47262297  0.20211868  0.51051345     0.13400
H540        H  0.46648015  0.03136546  0.52746376     0.13400
C541        C  0.79221072  0.37648940  0.78298588    -0.12700
C542        C  0.76617440  0.37318444  0.80231495    -0.14300
C543        C  0.66034282  0.06394030  0.98170725    -0.12700
C544        C  0.65961332  0.02365415  0.95967420    -0.14300
C545        C  0.65916862  0.20135141  0.95842134    -0.12700
C546        C  0.65935715  0.16127480  0.98073437    -0.14300
C547        C  0.63809267  0.02813156  0.71227767    -0.12800
C548        C  0.62168365  0.47917295  0.72018332     0.09400
C549        C  0.60292438  0.45657702  0.68676263    -0.12800
C550        C  0.60030666  0.98220827  0.64667667    -0.12800
C551        C  0.61538022  0.03184087  0.63926732     0.09400
C552        C  0.63478575  0.05391038  0.67245907    -0.12800
H553        H  0.65289819  0.04650227  0.73720355     0.13400
H554        H  0.59100833  0.41827921  0.69108149     0.13400
H555        H  0.58495408  0.46414034  0.62214565     0.13400
H556        H  0.64669934  0.09204517  0.66879612     0.13400
C557        C  0.59164903  0.21459850  0.71367559    -0.12800
C558        C  0.62353375  0.23034045  0.72566086     0.09400
C559        C  0.64953729  0.22347140  0.69593205    -0.12800
C560        C  0.64356268  0.20232761  0.65473856    -0.12800
C561        C  0.61156053  0.18709902  0.64262405     0.09400
C562        C  0.58578148  0.19286827  0.67290194    -0.12800
H563        H  0.57110254  0.21937732  0.73585141     0.13400
H564        H  0.67427676  0.23610047  0.70399239     0.13400
H565        H  0.66398086  0.19789400  0.63234498     0.13400
H566        H  0.56105636  0.17962829  0.66554667     0.13400
C567        C  0.49847721  0.32731988  0.90417342    -0.12800
C568        C  0.51821723  0.37290781  0.90041784     0.09400
C569        C  0.50288050  0.42313947  0.89578758    -0.12800
C570        C  0.46861575  0.42725052  0.89037339    -0.12800
C571        C  0.44900176  0.38086725  0.88804417     0.09400
C572        C  0.46410681  0.33141922  0.89897365    -0.12800
H573        H  0.50983963  0.28806114  0.90770736     0.13400
H574        H  0.51767219  0.45892504  0.89317474     0.13400
H575        H  0.45807689  0.46680418  0.88593530     0.13400
H576        H  0.44975164  0.29507102  0.89953085     0.13400
O577        O  0.71617304  0.91143352  0.32539845    -0.77900
C578        C  0.62597138  0.95082160  0.26217639     0.83100
O579        O  0.64440972  0.93370508  0.44741147    -0.79000
O580        O  0.56099040  0.86376631  0.35080493    -0.80500
O581        O  0.65705113  0.76334605  0.28391138    -0.80300
O582        O  0.72128472  0.82238345  0.32731318    -0.78900
Zn583      Zn  0.66838659  0.92827875  0.34167889     1.55700
O584        O  0.60413860  0.78762634  0.28199736    -0.80300
Cd585      Cd  0.67294398  0.79929630  0.34138521     1.59700
Cd586      Cd  0.62794349  0.86340990  0.41669338     1.59600
O587        O  0.66995951  0.74552063  0.39324506    -0.80300
O588        O  0.64432092  0.86302987  0.35526141    -1.90800
Cd589      Cd  0.60471716  0.85648197  0.31783816     1.59900
O590        O  0.64277794  0.79054819  0.44543491    -0.80300
O591        O  0.60615187  0.91311668  0.27057757    -0.78900
C592        C  0.65700313  0.97658809  0.43198858     0.83600
C593        C  0.73317680  0.86867770  0.31998521     0.83300
O594        O  0.64964732  0.96256008  0.28747201    -0.77900
C595        C  0.62854404  0.76161300  0.26644108     0.84100
O596        O  0.66623792  0.98019298  0.39259484    -0.78000
C597        C  0.65750543  0.74839480  0.43123031     0.84200
C598        C  0.55365225  0.86712895  0.39065367     0.84500
O599        O  0.57574715  0.86701793  0.42010751    -0.80400
C600        C  0.56904761  0.61375592  0.05083991     0.87100
C601        C  0.57566726  0.66204337  0.08060345    -0.53200
C602        C  0.60599524  0.66146779  0.10017868     0.10000
C603        C  0.62769968  0.61368699  0.08604112     0.20900
C604        C  0.59726949  0.61391676  0.01797999    -0.53900
C605        C  0.62826587  0.61375871  0.03587635     0.10100
C606        C  0.57636248  0.56528381  0.08066970    -0.53400
C607        C  0.60685745  0.56545318  0.09977420     0.10700
H608        H  0.55653052  0.69083163  0.08931840     0.15200
H609        H  0.65261936  0.61347764  0.10055688     0.00900
H610        H  0.59313079  0.61385587  0.98330782     0.15500
H611        H  0.55733140  0.53783599  0.09091861     0.15300
C612        C  0.65911258  0.61279548  0.50877242    -0.01900
O613        O  0.76714032  0.57797688  0.07366490    -0.77900
C614        C  0.85593451  0.53831940  0.51048397     0.83100
O615        O  0.83896703  0.55800457  0.19479535    -0.79000
O616        O  0.92258983  0.62906938  0.09844746    -0.80500
O617        O  0.82592916  0.72501651  0.02974060    -0.80300
O618        O  0.76199359  0.66702894  0.07542310    -0.78900
Zn619      Zn  0.81513687  0.56123518  0.08882015     1.55700
O620        O  0.87733856  0.70161875  0.52874820    -0.80300
Cd621      Cd  0.81043659  0.69040056  0.08781007     1.59700
Cd622      Cd  0.85488565  0.62835687  0.16347912     1.59600
O623        O  0.81322053  0.74585048  0.13855727    -0.80300
O624        O  0.83915643  0.62668781  0.10182843    -1.90800
Cd625      Cd  0.87906207  0.63079453  0.06444527     1.59900
O626        O  0.83920092  0.70099473  0.19174485    -0.80300
O627        O  0.87593857  0.57588312  0.51843481    -0.78900
C628        C  0.82646175  0.51489559  0.17985065     0.83600
C629        C  0.74997850  0.62070434  0.06887359     0.83300
O630        O  0.83388689  0.52529587  0.03493541    -0.77900
C631        C  0.85270588  0.72724689  0.51335074     0.84100
O632        O  0.81739242  0.51063055  0.14050001    -0.78000
C633        C  0.82491833  0.74323145  0.17692426     0.84200
C634        C  0.92940809  0.62785819  0.13854327     0.84500
O635        O  0.90693382  0.62752664  0.16754664    -0.80400
C636        C  0.91299715  0.87313896  0.29869122     0.87100
C637        C  0.90501613  0.82390894  0.32706017    -0.53200
C638        C  0.87472294  0.82574145  0.34667735     0.10000
C639        C  0.85424405  0.87529496  0.33387368     0.20900
C640        C  0.88491032  0.87627247  0.26577092    -0.53900
C641        C  0.85383545  0.87678331  0.28365761     0.10100
C642        C  0.90673459  0.92056854  0.32973906    -0.53400
C643        C  0.87620107  0.92165571  0.34878398     0.10700
H644        H  0.92334770  0.79394659  0.33604483     0.15200
H645        H  0.82936254  0.87621200  0.34865171     0.00900
H646        H  0.88917062  0.87714795  0.23111584     0.15500
H647        H  0.92639697  0.94684306  0.33992784     0.15300
C648        C  0.82251694  0.87770631  0.25579778    -0.01900
O649        O  0.32863475  0.52709426  0.13383012    -0.77900
C650        C  0.24979486  0.62818641  0.10065088     0.83100
O651        O  0.33888310  0.55412768  0.97341048    -0.79000
O652        O  0.31545797  0.74433519  0.02687613    -0.80500
O653        O  0.37823817  0.68194584  0.14745208    -0.80300
O654        O  0.38001415  0.55630735  0.14027625    -0.78900
Zn655      Zn  0.31201358  0.56233375  0.07834926     1.55700
O656        O  0.33175154  0.72758399  0.13463890    -0.80300
Cd657      Cd  0.37896207  0.62258683  0.10204233     1.59700
Cd658      Cd  0.35515052  0.62490064  0.00327610     1.59600
O659        O  0.42245475  0.62422422  0.06838362    -0.80300
O660        O  0.33891228  0.62475030  0.06488943    -1.90800
Cd661      Cd  0.31298870  0.69143262  0.07913933     1.59900
O662        O  0.40736028  0.62234762  0.99919990    -0.80700
O663        O  0.26417025  0.67300461  0.09541567    -0.78900
C664        C  0.32506543  0.51216303  0.98865140     0.83600
C665        C  0.35625746  0.52785338  0.15354747     0.83300
O666        O  0.26447664  0.58367391  0.09316985    -0.77900
C667        C  0.35733386  0.71811639  0.15762606     0.84100
O668        O  0.31435503  0.50975099  0.02752749    -0.78000
C669        C  0.42961551  0.62266267  0.02843253     0.84200
C670        C  0.32642881  0.74031436  0.98824197     0.84500
O671        O  0.34000709  0.69731761  0.97376940    -0.80400
C672        C  0.41403829  0.87956595  0.36918542     0.87100
C673        C  0.38584200  0.87656502  0.40200932    -0.53200
C674        C  0.35483858  0.87677193  0.38407488     0.10000
C675        C  0.35539918  0.87902038  0.33397283     0.20900
C676        C  0.40814335  0.83262324  0.33768254    -0.53900
C677        C  0.37760840  0.83242587  0.31859482     0.10100
C678        C  0.40587043  0.92933232  0.34123358    -0.53400
C679        C  0.37566535  0.92823919  0.32148647     0.10700
H680        H  0.38998144  0.87526424  0.43666823     0.15200
H681        H  0.33046912  0.87909822  0.31949746     0.00900
H682        H  0.42798741  0.80586102  0.32766026     0.15500
H683        H  0.42408386  0.95882446  0.33220769     0.15300
C684        C  0.32341601  0.87637902  0.41183947    -0.01900
O685        O  0.21839958  0.83175920  0.34487657    -0.77900
C686        C  0.12689834  0.77547727  0.40727752     0.83100
O687        O  0.14316135  0.80335796  0.22741852    -0.79000
O688        O  0.05986447  0.87505444  0.32226860    -0.80500
O689        O  0.15056568  0.97536216  0.38787032    -0.80300
O690        O  0.21784733  0.92111848  0.34624399    -0.78900
Zn691      Zn  0.17073007  0.81082394  0.33201345     1.55700
O692        O  0.10480138  0.92978562  0.40213552    -0.80300
Cd693      Cd  0.16880152  0.93988035  0.33189575     1.59700
Cd694      Cd  0.12743251  0.87504692  0.25690993     1.59600
O695        O  0.16622461  0.99335864  0.28014832    -0.80300
O696        O  0.14334814  0.87357882  0.31849926    -1.90800
Cd697      Cd  0.10345024  0.87110392  0.35611152     1.59900
O698        O  0.14324796  0.94625880  0.22661860    -0.80300
O699        O  0.10277291  0.80386454  0.39384277    -0.78900
C700        C  0.15707966  0.76100962  0.24259869     0.83600
C701        C  0.23279711  0.87630380  0.35110411     0.83300
O702        O  0.15478286  0.77554030  0.38801152    -0.77900
C703        C  0.12560176  0.96564419  0.41173265     0.84100
O704        O  0.16805211  0.75831903  0.28131574    -0.78000
C705        C  0.15627621  0.98916351  0.24116765     0.84200
C706        C  0.05296096  0.87557898  0.28218536     0.84500
O707        O  0.07537042  0.87560009  0.25308928    -0.80400
C708        C  0.06935793  0.62423345  0.12202755     0.87100
C709        C  0.07762319  0.57589411  0.09258944    -0.53200
C710        C  0.10816169  0.57722118  0.07358041     0.10000
C711        C  0.12808121  0.62649408  0.08689001     0.20900
C712        C  0.09748314  0.62590062  0.15494417    -0.53900
C713        C  0.12853792  0.62681680  0.13698588     0.10100
C714        C  0.07528864  0.67260120  0.09197295    -0.53400
C715        C  0.10563571  0.67322236  0.07245980     0.10700
H716        H  0.05912162  0.54755890  0.08246833     0.15200
H717        H  0.15300243  0.62737109  0.07238847     0.00900
H718        H  0.09327075  0.62559377  0.18961491     0.15500
H719        H  0.05576034  0.70060728  0.08308167     0.15300
C720        C  0.15995523  0.62601770  0.16461283    -0.01900
C721        C  0.15953247  0.71384218  0.21543965    -0.12700
C722        C  0.16011932  0.67389230  0.19304128    -0.14300
C723        C  0.15902862  0.53560462  0.21269924    -0.12700
C724        C  0.16027270  0.57641612  0.19126351    -0.14300
C725        C  0.09048088  0.72978216  0.46040665    -0.12800
C726        C  0.12233848  0.74491614  0.44778658     0.09400
C727        C  0.14871989  0.73638274  0.97581541    -0.12800
C728        C  0.14324760  0.71503256  0.01714188    -0.12800
C729        C  0.11120445  0.70147100  0.03057601     0.09400
C730        C  0.08497194  0.70705355  0.50093320    -0.12800
H731        H  0.06968882  0.73564955  0.43884318     0.13400
H732        H  0.17353698  0.74757855  0.96666069     0.13400
H733        H  0.16409831  0.70916767  0.03856518     0.13400
H734        H  0.06021533  0.69414300  0.50857134     0.13400
C735        C  0.10353906  0.96983849  0.98638218    -0.12800
C736        C  0.12130409  0.99461857  0.45293913     0.09400
C737        C  0.14096311  0.53970135  0.46132273    -0.12800
C738        C  0.13715622  0.56577047  0.50086530    -0.12800
C739        C  0.11602916  0.54516261  0.03413152     0.09400
C740        C  0.10077627  0.49566226  0.02685918    -0.12800
H741        H  0.09209315  0.93117794  0.98212707     0.13400
H742        H  0.15514605  0.55872182  0.43597436     0.13400
H743        H  0.14808621  0.60474683  0.50402223     0.13400
H744        H  0.08587466  0.47702686  0.05163063     0.13400
C745        C  0.29278129  0.87629430  0.38562899    -0.12700
C746        C  0.26631923  0.87605825  0.36723862    -0.14300
C747        C  0.19062172  0.62671678  0.13815306    -0.12700
C748        C  0.21672218  0.62759258  0.11868951    -0.14300
C749        C  0.32339289  0.82747161  0.43918256    -0.12700
C750        C  0.32397950  0.78698006  0.46102575    -0.14300
C751        C  0.32260649  0.92495305  0.43959245    -0.12700
C752        C  0.32293248  0.96527816  0.46159659    -0.14300
C753        C  0.39090458  0.98156602  0.20861493    -0.12800
C754        C  0.35898543  0.99632006  0.19532136     0.09400
C755        C  0.33369521  0.48887104  0.22202705    -0.12800
C756        C  0.33793755  0.96933964  0.26574008    -0.12800
C757        C  0.37002341  0.95531787  0.27922777     0.09400
C758        C  0.39632908  0.96085781  0.24982815    -0.12800
H759        H  0.41181534  0.98649886  0.18713311     0.13400
H760        H  0.30876121  0.49799960  0.21148806     0.13400
H761        H  0.31716343  0.96473578  0.28746482     0.13400
H762        H  0.42116656  0.94822458  0.25820338     0.13400
C763        C  0.38404509  0.72699795  0.23010546    -0.12800
C764        C  0.36240494  0.74765355  0.19848906     0.09400
C765        C  0.34457538  0.79472996  0.20746391    -0.12800
C766        C  0.34884212  0.82127457  0.24674538    -0.12800
C767        C  0.37074814  0.80109940  0.27843404     0.09400
C768        C  0.38795564  0.75309829  0.26965892    -0.12800
H769        H  0.39768779  0.69007193  0.22455998     0.13400
H770        H  0.32761132  0.81149368  0.18387801     0.13400
H771        H  0.33542398  0.85837808  0.25124482     0.13400
H772        H  0.40455411  0.73552465  0.29325542     0.13400
C773        C  0.96655647  0.82469114  0.27536016    -0.12800
C774        C  0.94810294  0.87274828  0.27942550     0.09400
C775        C  0.96470379  0.92132276  0.27158040    -0.12800
C776        C  0.99925286  0.92225774  0.26809003    -0.12800
C777        C  0.01769436  0.87450243  0.27048506     0.09400
C778        C  0.00101889  0.82564779  0.27172587    -0.12800
H779        H  0.95479134  0.78611673  0.27771346     0.13400
H780        H  0.95132661  0.95910968  0.27194461     0.13400
H781        H  0.01166595  0.96046308  0.26686699     0.13400
H782        H  0.01481926  0.78824477  0.27310833     0.13400
C783        C  0.82305682  0.96814258  0.20774872    -0.12700
C784        C  0.82193984  0.92750685  0.22941082    -0.14300
C785        C  0.82285746  0.79042205  0.20420056    -0.12700
C786        C  0.82248255  0.83015173  0.22690966    -0.14300
C787        C  0.84588411  0.95961873  0.46143558    -0.12800
C788        C  0.85951423  0.50950162  0.46909360     0.09400
C789        C  0.87684888  0.53338424  0.43479870    -0.12800
C790        C  0.88600794  0.00183268  0.39636131    -0.12800
C791        C  0.86958286  0.95338644  0.38889916     0.09400
C792        C  0.84919768  0.93297934  0.42192040    -0.12800
H793        H  0.83109627  0.94302962  0.98639179     0.13400
H794        H  0.88790290  0.57241700  0.43853137     0.13400
H795        H  0.89356449  0.52699089  0.36946686     0.13400
H796        H  0.83638472  0.89563829  0.41816615     0.13400
C797        C  0.83095565  0.76402065  0.44316607    -0.12800
C798        C  0.85733996  0.75623259  0.47212565     0.09400
C799        C  0.88928620  0.77034769  0.45912660    -0.12800
C800        C  0.89490593  0.79138380  0.41811125    -0.12800
C801        C  0.86878833  0.79813435  0.38858449     0.09400
C802        C  0.83667030  0.78465901  0.40165754    -0.12800
H803        H  0.80612230  0.75268749  0.45212946     0.13400
H804        H  0.91009347  0.76492398  0.48072933     0.13400
H805        H  0.91974975  0.80352045  0.41005819     0.13400
H806        H  0.81602225  0.79018284  0.37982306     0.13400
C807        C  0.98173125  0.57672852  0.14777210    -0.12800
C808        C  0.96465759  0.62569681  0.15033743     0.09400
C809        C  0.98271257  0.67307736  0.15408095    -0.12800
C810        C  0.01727588  0.67187127  0.15051176    -0.12800
C811        C  0.03426594  0.62348528  0.14134480     0.09400
C812        C  0.01620212  0.57549872  0.14418613    -0.12800
H813        H  0.96824118  0.53960224  0.14534543     0.13400
H814        H  0.96998088  0.71136971  0.15635548     0.13400
H815        H  0.03034735  0.70946597  0.15113226     0.13400
H816        H  0.02828011  0.53687989  0.14087079     0.13400
C817        C  0.69027075  0.61392575  0.03412050    -0.12700
C818        C  0.71664226  0.61661028  0.05255127    -0.14300
C819        C  0.51555608  0.56713161  0.02742556    -0.12800
C820        C  0.53418085  0.61442124  0.03099063     0.09400
C821        C  0.51824126  0.66338672  0.02062575    -0.12800
C822        C  0.48387821  0.66586441  0.01478754    -0.12800
C823        C  0.46501367  0.61919673  0.01744211     0.09400
C824        C  0.48130248  0.56963053  0.02145071    -0.12800
H825        H  0.52693469  0.52810885  0.03178956     0.13400
H826        H  0.53186970  0.70045500  0.02057892     0.13400
H827        H  0.47179277  0.70461723  0.01170234     0.13400
H828        H  0.46720702  0.53304119  0.02337656     0.13400
C829        C  0.79195230  0.87591079  0.28225183    -0.12700
C830        C  0.76603910  0.87277740  0.30186701    -0.14300
C831        C  0.65978834  0.56367179  0.48156908    -0.12700
C832        C  0.65900075  0.52347843  0.45939156    -0.14300
C833        C  0.65912507  0.70131616  0.45861715    -0.12700
C834        C  0.65925421  0.66108598  0.48075714    -0.14300
C835        C  0.63747962  0.52822771  0.21216144    -0.12800
C836        C  0.62218502  0.97923361  0.22066968     0.09400
C837        C  0.60437610  0.95547935  0.18690100    -0.12800
C838        C  0.59836744  0.48435871  0.14698739    -0.12800
C839        C  0.61398734  0.53355982  0.13963259     0.09400
C840        C  0.63397230  0.55464613  0.17263435    -0.12800
H841        H  0.65278784  0.54585100  0.23691738     0.13400
H842        H  0.59290770  0.91681536  0.19121098     0.13400
H843        H  0.58756282  0.96143802  0.12167719     0.13400
H844        H  0.64626055  0.59246967  0.16901063     0.13400
C845        C  0.59142536  0.71954710  0.21213184    -0.12800
C846        C  0.62354630  0.73221826  0.22541395     0.09400
C847        C  0.64994260  0.72275121  0.19673074    -0.12800
C848        C  0.64415619  0.70194505  0.15535479    -0.12800
C849        C  0.61193572  0.68950874  0.14202443     0.09400
C850        C  0.58572125  0.69811846  0.17124145    -0.12800
H851        H  0.57053961  0.72639542  0.23341115     0.13400
H852        H  0.67492052  0.73299050  0.20575638     0.13400
H853        H  0.66491842  0.69549152  0.13382907     0.13400
H854        H  0.56070934  0.68718581  0.16310059     0.13400
C855        C  0.49889195  0.82586342  0.40448989    -0.12800
C856        C  0.51825052  0.87196083  0.40139340     0.09400
C857        C  0.50248175  0.92193569  0.39735168    -0.12800
C858        C  0.46818960  0.92535266  0.39183925    -0.12800
C859        C  0.44900015  0.87857242  0.38880235     0.09400
C860        C  0.46451039  0.82926030  0.39916615    -0.12800
H861        H  0.51058267  0.78679516  0.40758685     0.13400
H862        H  0.51696081  0.95810178  0.39520402     0.13400
H863        H  0.45725254  0.96469968  0.38769324     0.13400
H864        H  0.45048830  0.79256950  0.39931141     0.13400
O865        O  0.71616755  0.91284766  0.82549457    -0.77900
C866        C  0.62574249  0.95146737  0.76164484     0.83100
O867        O  0.64453416  0.93385748  0.94730369    -0.79000
O868        O  0.56115004  0.86448567  0.85074631    -0.80500
O869        O  0.65708186  0.76451036  0.78331695    -0.80300
O870        O  0.72140279  0.82379008  0.82696249    -0.78900
Zn871      Zn  0.66821376  0.92931561  0.84138184     1.55700
O872        O  0.60405501  0.78819952  0.78205830    -0.80300
Cd873      Cd  0.67309896  0.80028683  0.84080490     1.59700
Cd874      Cd  0.62818951  0.86364946  0.91641680     1.59600
O875        O  0.67030196  0.74610673  0.89243897    -0.80300
O876        O  0.64439533  0.86381521  0.85491560    -1.90800
Cd877      Cd  0.60474383  0.85726166  0.81758822     1.59900
O878        O  0.64321053  0.79072070  0.94490951    -0.80300
O879        O  0.60597269  0.91372816  0.77014412    -0.78900
C880        C  0.65679734  0.97703509  0.93195959     0.83600
C881        C  0.73327716  0.87019522  0.82004312     0.83300
O882        O  0.64942067  0.96331230  0.78693599    -0.77900
C883        C  0.62844914  0.76243375  0.76622134     0.84100
O884        O  0.66579149  0.98106700  0.89248416    -0.78000
C885        C  0.65794671  0.74869114  0.93049020     0.84200
C886        C  0.55389105  0.86734460  0.89063896     0.84500
O887        O  0.57602504  0.86690797  0.92003589    -0.80400
C888        C  0.56856677  0.61203570  0.55169758     0.87100
C889        C  0.57478416  0.66043372  0.58149219    -0.53200
C890        C  0.60516603  0.66056461  0.60090558     0.10000
C891        C  0.62723073  0.61323294  0.58677482     0.20900
C892        C  0.59675304  0.61287858  0.51877847    -0.53900
C893        C  0.62775446  0.61326552  0.53662908     0.10100
C894        C  0.57632093  0.56368263  0.58147370    -0.53400
C895        C  0.60682636  0.56456207  0.60048920     0.10700
H896        H  0.55542938  0.68886773  0.59016441     0.15200
H897        H  0.65212281  0.61349905  0.60136186     0.00900
H898        H  0.59258963  0.61271252  0.48411201     0.15500
H899        H  0.55758876  0.53578066  0.59185110     0.15300
C900        C  0.65962668  0.61296830  0.00797918    -0.01900
O901        O  0.76620661  0.57858384  0.57589539    -0.77900
C902        C  0.85891193  0.53413974  0.01094723     0.83100
O903        O  0.83914429  0.55894712  0.69612698    -0.79000
O904        O  0.92165941  0.62701130  0.59789961    -0.80500
O905        O  0.82433262  0.72569027  0.53124712    -0.80300
O906        O  0.76082682  0.66759545  0.57729913    -0.78900
Zn907      Zn  0.81429747  0.56235485  0.59061513     1.55700
O908        O  0.87808582  0.69653633  0.02504833    -0.80300
Cd909      Cd  0.80922286  0.69123203  0.58954231     1.59700
Cd910      Cd  0.85484836  0.62942970  0.66455270     1.59600
O911        O  0.81234449  0.74659114  0.64021472    -0.80300
O912        O  0.83824316  0.62792648  0.60333779    -1.90800
Cd913      Cd  0.87761145  0.63320281  0.56522871     1.59900
O914        O  0.83949305  0.70231147  0.69278521    -0.80300
O915        O  0.87949677  0.57052119  0.01989872    -0.78900
C916        C  0.82659187  0.51578683  0.68129124     0.83600
C917        C  0.74896093  0.62115695  0.57083814     0.83300
O918        O  0.83230774  0.52710372  0.53615628    -0.77900
C919        C  0.85394831  0.72435956  0.01081853     0.84100
O920        O  0.81718414  0.51158780  0.64207604    -0.78000
C921        C  0.82472704  0.74427845  0.67822328     0.84200
C922        C  0.92909462  0.62627434  0.63781883     0.84500
O923        O  0.90704450  0.62796624  0.66738500    -0.80400
C924        C  0.91359373  0.87634046  0.79789280     0.87100
C925        C  0.90621874  0.82676497  0.82611722    -0.53200
C926        C  0.87603666  0.82775190  0.84606912     0.10000
C927        C  0.85509572  0.87705987  0.83384170     0.20900
C928        C  0.88522017  0.87902880  0.76536677    -0.53900
C929        C  0.85428162  0.87887598  0.78368750     0.10100
C930        C  0.90719477  0.92343844  0.82925502    -0.53400
C931        C  0.87680853  0.92373794  0.84868295     0.10700
H932        H  0.92477217  0.79674574  0.83415307     0.15200
H933        H  0.83031611  0.87754530  0.84888665     0.00900
H934        H  0.88919544  0.88013387  0.73065851     0.15500
H935        H  0.92669835  0.94997903  0.83948706     0.15300
C936        C  0.82274476  0.87935818  0.75628695    -0.01900
O937        O  0.32803052  0.52562141  0.63326585    -0.77900
C938        C  0.24969956  0.62749624  0.60082785     0.83100
O939        O  0.33869462  0.55409402  0.47300966    -0.79000
O940        O  0.31513638  0.74382330  0.52724597    -0.80500
O941        O  0.37840363  0.68095379  0.64729785    -0.80300
O942        O  0.37926465  0.55516996  0.64056597    -0.78900
Zn943      Zn  0.31167849  0.56151966  0.57791775     1.55700
O944        O  0.33196869  0.72679684  0.63461122    -0.80300
Cd945      Cd  0.37864895  0.62124945  0.60214879     1.59700
Cd946      Cd  0.35492291  0.62464737  0.50324088     1.59600
O947        O  0.42208881  0.62169798  0.56849606    -0.80300
O948        O  0.33868751  0.62396382  0.56486424    -1.90800
Cd949      Cd  0.31290694  0.69068599  0.57934453     1.59900
O950        O  0.40711192  0.62196733  0.49923492    -0.80700
O951        O  0.26418798  0.67227671  0.59597724    -0.78900
C952        C  0.32483638  0.51203235  0.48800471     0.83600
C953        C  0.35550279  0.52639469  0.65332353     0.83300
O954        O  0.26420945  0.58298398  0.59281782    -0.77900
C955        C  0.35761722  0.71731480  0.65745485     0.84100
O956        O  0.31404224  0.50935120  0.52682903    -0.78000
C957        C  0.42930036  0.62097055  0.52855297     0.84200
C958        C  0.32611979  0.74009322  0.48860826     0.84500
O959        O  0.33978631  0.69724740  0.47398873    -0.80400
C960        C  0.41446410  0.87918309  0.86869456     0.87100
C961        C  0.38620050  0.87655723  0.90141913    -0.53200
C962        C  0.35523706  0.87683613  0.88339179     0.10000
C963        C  0.35590547  0.87893476  0.83326577     0.20900
C964        C  0.40851039  0.83213878  0.83730867    -0.53900
C965        C  0.37801795  0.83210612  0.81810810     0.10100
C966        C  0.40652961  0.92886373  0.84055483    -0.53400
C967        C  0.37637573  0.92794292  0.82068097     0.10700
H968        H  0.39027411  0.87528878  0.93609210     0.15200
H969        H  0.33099713  0.87909175  0.81871859     0.00900
H970        H  0.42829694  0.80520438  0.82739105     0.15500
H971        H  0.42485751  0.95822159  0.83163621     0.15300
C972        C  0.32378696  0.87629917  0.91112415    -0.01900
O973        O  0.21864558  0.83142763  0.84450224    -0.77900
C974        C  0.12675123  0.77533567  0.90658157     0.83100
O975        O  0.14350331  0.80308495  0.72695897    -0.79000
O976        O  0.06017125  0.87610909  0.82126069    -0.80500
O977        O  0.15084959  0.97490963  0.88739313    -0.80300
O978        O  0.21815589  0.92079693  0.84568842    -0.78900
Zn979      Zn  0.17092615  0.81059214  0.83162258     1.55700
O980        O  0.10529920  0.92877851  0.90173855    -0.80300
Cd981      Cd  0.16910812  0.93961709  0.83137170     1.59700
Cd982      Cd  0.12792613  0.87490180  0.75624777     1.59600
O983        O  0.16651173  0.99323370  0.77971764    -0.80300
O984        O  0.14366652  0.87335319  0.81788347    -1.90800
Cd985      Cd  0.10365636  0.87075103  0.85526185     1.59900
O986        O  0.14386009  0.94607933  0.72598600    -0.80300
O987        O  0.10254360  0.80309446  0.89254730    -0.78900
C988        C  0.15720042  0.76064152  0.74228829     0.83600
C989        C  0.23308325  0.87597183  0.85061663     0.83300
O990        O  0.15478676  0.77572934  0.88769764    -0.77900
C991        C  0.12601399  0.96474727  0.91135674     0.84100
O992        O  0.16810914  0.75794120  0.78104044    -0.78000
C993        C  0.15670971  0.98905888  0.74067154     0.84200
C994        C  0.05339743  0.87663358  0.78113604     0.84500
O995        O  0.07589681  0.87589871  0.75216672    -0.80400
C996        C  0.06953245  0.62054851  0.62112357     0.87100
C997        C  0.07886951  0.57236277  0.59202959    -0.53200
C998        C  0.10951507  0.57494672  0.57348265     0.10000
C999        C  0.12850129  0.62510312  0.58679218     0.20900
C1000       C  0.09739028  0.62366447  0.65444509    -0.53900
C1001       C  0.12858317  0.62556286  0.63688401     0.10100
C1002       C  0.07494011  0.66897686  0.59100500    -0.53400
C1003       C  0.10543926  0.67085278  0.57197660     0.10700
H1004       H  0.06104632  0.54318719  0.58145611     0.15200
H1005       H  0.15345706  0.62684477  0.57242174     0.00900
H1006       H  0.09292189  0.62325941  0.68905737     0.15500
H1007       H  0.05505417  0.69628358  0.58201601     0.15300
C1008       C  0.15987182  0.62529982  0.66479284    -0.01900
C1009       C  0.15942483  0.71337916  0.71525282    -0.12700
C1010       C  0.15985598  0.67336638  0.69295219    -0.14300
C1011       C  0.15913592  0.53542938  0.71352621    -0.12700
C1012       C  0.16029147  0.57598514  0.69177510    -0.14300
C1013       C  0.09022612  0.73153079  0.96073560    -0.12800
C1014       C  0.12216153  0.74531588  0.94738667     0.09400
C1015       C  0.14869580  0.73676864  0.47666377    -0.12800
C1016       C  0.14307355  0.71479125  0.51774629    -0.12800
C1017       C  0.11109542  0.69980608  0.53043718     0.09400
C1018       C  0.08484835  0.70943905  0.00152845    -0.12800
H1019       H  0.06926261  0.73798898  0.93956136     0.13400
H1020       H  0.17342282  0.74906173  0.46805102     0.13400
H1021       H  0.16375001  0.70953332  0.53955022     0.13400
H1022       H  0.05998892  0.69758536  0.00972706     0.13400
C1023       C  0.10187982  0.97257530  0.48607698    -0.12800
C1024       C  0.12177070  0.99329623  0.95271664     0.09400
C1025       C  0.13982630  0.54032753  0.96170392    -0.12800
C1026       C  0.13613788  0.56651513  0.00121535    -0.12800
C1027       C  0.11814990  0.54306575  0.53429521     0.09400
C1028       C  0.10441093  0.49228224  0.52771924    -0.12800
H1029       H  0.08947972  0.93476424  0.48152705     0.13400
H1030       H  0.15507798  0.55823665  0.93690094     0.13400
H1031       H  0.14821482  0.60451410  0.00473798     0.13400
H1032       H  0.09042033  0.47276353  0.55296770     0.13400
C1033       C  0.29315546  0.87610426  0.88490900    -0.12700
C1034       C  0.26664498  0.87575138  0.86663500    -0.14300
C1035       C  0.19061681  0.62600018  0.63851574    -0.12700
C1036       C  0.21669375  0.62689755  0.61902030    -0.14300
C1037       C  0.32380749  0.82739494  0.93847248    -0.12700
C1038       C  0.32436655  0.78702858  0.96046454    -0.14300
C1039       C  0.32287744  0.92477455  0.93897735    -0.12700
C1040       C  0.32306352  0.96490452  0.96121184    -0.14300
C1041       C  0.39197201  0.98254238  0.70817914    -0.12800
C1042       C  0.36004908  0.99701721  0.69471377     0.09400
C1043       C  0.33277750  0.48845316  0.72204588    -0.12800
C1044       C  0.33878682  0.96901746  0.76476283    -0.12800
C1045       C  0.37085283  0.95521198  0.77844306     0.09400
C1046       C  0.39728305  0.96140499  0.74929627    -0.12800
H1047       H  0.41296017  0.98797135  0.68690799     0.13400
H1048       H  0.30790808  0.49839559  0.71170195     0.13400
H1049       H  0.31792034  0.96400178  0.78626965     0.13400
H1050       H  0.42213594  0.94898924  0.75778219     0.13400
C1051       C  0.38427774  0.72624615  0.72995051    -0.12800
C1052       C  0.36284802  0.74705779  0.69816304     0.09400
C1053       C  0.34526931  0.79445590  0.70686503    -0.12800
C1054       C  0.34953118  0.82109952  0.74609089    -0.12800
C1055       C  0.37118688  0.80073048  0.77798128     0.09400
C1056       C  0.38818629  0.75246694  0.76945317    -0.12800
H1057       H  0.39771823  0.68908202  0.72459529     0.13400
H1058       H  0.32847974  0.81135249  0.68312808     0.13400
H1059       H  0.33629233  0.85840315  0.75041275     0.13400
H1060       H  0.40459931  0.73477692  0.79321388     0.13400
C1061       C  0.96652905  0.82814851  0.77213280    -0.12800
C1062       C  0.94855897  0.87637224  0.77815947     0.09400
C1063       C  0.96563056  0.92489205  0.77211332    -0.12800
C1064       C  0.00016951  0.92513802  0.76862890    -0.12800
C1065       C  0.01815985  0.87686836  0.76921908     0.09400
C1066       C  0.00102222  0.82841998  0.76851946    -0.12800
H1067       H  0.95434081  0.78982629  0.77323698     0.13400
H1068       H  0.95265422  0.96297674  0.77373380     0.13400
H1069       H  0.01294403  0.96304970  0.76882024     0.13400
H1070       H  0.01446815  0.79064822  0.76852315     0.13400
C1071       C  0.82308710  0.96929599  0.70776911    -0.12700
C1072       C  0.82193837  0.92886303  0.72962500    -0.14300
C1073       C  0.82289081  0.79159148  0.70532603    -0.12700
C1074       C  0.82263354  0.83155405  0.72773367    -0.14300
C1075       C  0.84660822  0.96046797  0.96164344    -0.12800
C1076       C  0.86341271  0.50418833  0.97014228     0.09400
C1077       C  0.88348125  0.52532374  0.93724763    -0.12800
C1078       C  0.88617798  0.00389162  0.89649779    -0.12800
C1079       C  0.87018020  0.95506979  0.88899829     0.09400
C1080       C  0.85013130  0.93399918  0.92209533    -0.12800
H1081       H  0.83013467  0.94267216  0.48615112     0.13400
H1082       H  0.89647333  0.56256347  0.94191442     0.13400
H1083       H  0.90199323  0.51717813  0.87290849     0.13400
H1084       H  0.83772591  0.89629366  0.91836064     0.13400
C1085       C  0.83217657  0.76435231  0.94178214    -0.12800
C1086       C  0.85875393  0.75374108  0.96983771     0.09400
C1087       C  0.89087845  0.76590474  0.95627276    -0.12800
C1088       C  0.89645020  0.78828543  0.91573003    -0.12800
C1089       C  0.87007755  0.79829746  0.88716594     0.09400
C1090       C  0.83782835  0.78616792  0.90066504    -0.12800
H1091       H  0.80718881  0.75445726  0.95115691     0.13400
H1092       H  0.91185296  0.75819953  0.97717028     0.13400
H1093       H  0.92149039  0.79906634  0.90747181     0.13400
H1094       H  0.81698946  0.79378333  0.87954653     0.13400
C1095       C  0.98110619  0.57340667  0.64346256    -0.12800
C1096       C  0.96451893  0.62245892  0.64874653     0.09400
C1097       C  0.98309706  0.66891744  0.65497329    -0.12800
C1098       C  0.01768825  0.66704253  0.65132501    -0.12800
C1099       C  0.03421124  0.61901571  0.63979210     0.09400
C1100       C  0.01557029  0.57147317  0.63996870    -0.12800
H1101       H  0.96723581  0.53691553  0.63921057     0.13400
H1102       H  0.97076631  0.70727282  0.65928790     0.13400
H1103       H  0.03118741  0.70413455  0.65363177     0.13400
H1104       H  0.02713144  0.53274150  0.63510651     0.13400
C1105       C  0.68965496  0.61383935  0.53509553    -0.12700
C1106       C  0.71579389  0.61674199  0.55404482    -0.14300
C1107       C  0.51500281  0.56490690  0.52917798    -0.12800
C1108       C  0.53373275  0.61217151  0.53184386     0.09400
C1109       C  0.51799368  0.66088966  0.52029806    -0.12800
C1110       C  0.48366583  0.66341418  0.51412379    -0.12800
C1111       C  0.46467645  0.61697413  0.51768509     0.09400
C1112       C  0.48080284  0.56745343  0.52290612    -0.12800
H1113       H  0.52622433  0.52592396  0.53431025     0.13400
H1114       H  0.53174164  0.69784155  0.51968076     0.13400
H1115       H  0.47169282  0.70213448  0.51015965     0.13400
H1116       H  0.46659757  0.53103545  0.52551491     0.13400
C1117       C  0.79229370  0.87767549  0.78298735    -0.12700
C1118       C  0.76627998  0.87453038  0.80238136    -0.14300
C1119       C  0.66014839  0.56366740  0.98099176    -0.12700
C1120       C  0.65931207  0.52322022  0.95912404    -0.14300
C1121       C  0.65967984  0.70143494  0.95770245    -0.12700
C1122       C  0.65983522  0.66115525  0.97980603    -0.14300
C1123       C  0.63756681  0.52789077  0.71286424    -0.12800
C1124       C  0.62187265  0.97984069  0.72007425     0.09400
C1125       C  0.60325551  0.95679469  0.68671334    -0.12800
C1126       C  0.59951914  0.48279931  0.64713347    -0.12800
C1127       C  0.61433971  0.53271747  0.64019320     0.09400
C1128       C  0.63381949  0.55445014  0.67343772    -0.12800
H1129       H  0.65241212  0.54599626  0.73787719     0.13400
H1130       H  0.59114252  0.91872486  0.69137855     0.13400
H1131       H  0.58585424  0.96316864  0.62176669     0.13400
H1132       H  0.64544925  0.59287272  0.67007922     0.13400
C1133       C  0.59110761  0.71943466  0.71264953    -0.12800
C1134       C  0.62325315  0.73284201  0.72534969     0.09400
C1135       C  0.64944320  0.72377437  0.69628104    -0.12800
C1136       C  0.64343969  0.70252811  0.65512312    -0.12800
C1137       C  0.61120938  0.68925704  0.64240198     0.09400
C1138       C  0.58519192  0.69757804  0.67195490    -0.12800
H1139       H  0.57037901  0.72598603  0.73424831     0.13400
H1140       H  0.67441644  0.73460902  0.70485088     0.13400
H1141       H  0.66404827  0.69635435  0.63329603     0.13400
H1142       H  0.56020563  0.68605057  0.66422965     0.13400
C1143       C  0.49928405  0.82561434  0.90417944    -0.12800
C1144       C  0.51852095  0.87187693  0.90148617     0.09400
C1145       C  0.50264885  0.92179088  0.89769707    -0.12800
C1146       C  0.46837718  0.92502948  0.89200305    -0.12800
C1147       C  0.44934095  0.87814307  0.88850319     0.09400
C1148       C  0.46492664  0.82882719  0.89864567    -0.12800
H1149       H  0.51106748  0.78659403  0.90706799     0.13400
H1150       H  0.51704463  0.95806961  0.89583315     0.13400
H1151       H  0.45733591  0.96433226  0.88801523     0.13400
H1152       H  0.45100330  0.79203999  0.89849907     0.13400
loop_ 
_geom_bond_atom_site_label_1 
_geom_bond_atom_site_label_2 
_geom_bond_distance 
_geom_bond_site_symmetry_2 
_ccdc_geom_bond_type 
O1           C17   1.275       .  A
O1           Zn7   2.041       .  S
C2           O18   1.276       .  A
C2           O15   1.270       .  A
C2          C260   1.476       .  S
O3           C16   1.281       .  A
O3          Cd10   2.111       .  S
O4           C22   1.270       .  A
O4          Cd13   2.047       .  S
O5           C19   1.276       .  A
O5           Cd9   2.098       .  S
O6           C17   1.276       .  A
O6           Cd9   2.090       .  S
Zn7          O18   2.030       .  S
Zn7          O20   2.048       .  S
Zn7          O12   1.951       .  S
O8           C19   1.271       .  A
O8          Cd13   2.050       .  S
Cd9          O11   2.094       .  S
Cd9          O12   2.003       .  S
Cd10         O14   2.104       .  S
Cd10         O23   2.113       .  S
Cd10         O12   2.012       .  S
O11          C21   1.280       .  A
O12         Cd13   1.989       .  S
Cd13         O15   2.036       .  S
O14          C21   1.282       .  A
C16          O20   1.278       .  A
C16         C832   1.454       .  S
C17         C254   1.448       .  S
C19         C270   1.481       .  S
C21         C257   1.448       .  S
C22          O23   1.277       .  A
C22         C280   1.473       .  S
C24          C25   1.543       .  S
C24          C30   1.546       .  S
C24          C28   1.530       .  S
C24         C244   1.540       .  S
C25          H32   1.086       .  S
C25          C26   1.369       .  D
C26          C27   1.537       .  S
C26         C273   1.491       .  S
C27          C31   1.535       .  S
C27          C29   1.551       .  S
C27          H33   1.105       .  S
C28          H34   1.086   1_554  S
C28          C29   1.373       .  D
C29         C324   1.534       .  S
C30          H35   1.082       .  S
C30          C31   1.369       .  D
C31         C263   1.491       .  S
C36         C317   1.534       .  S
C36         C255   1.487       .  S
C36         C258   1.483       .  S
C36         C529   1.483       .  S
O37          C53   1.275       .  A
O37         Zn43   2.040       .  S
C38          O51   1.271       .  A
C38         O342   1.276       .  A
C38         C212   1.481       .  S
O39          C52   1.281       .  A
O39         Cd46   2.109       .  S
O40          C58   1.272       .  A
O40         Cd49   2.055       .  S
O41         C343   1.275       .  A
O41         Cd45   2.087       .  S
O42          C53   1.276       .  A
O42         Cd45   2.087       .  S
Zn43         O54   2.039       .  S
Zn43         O56   2.040       .  S
Zn43         O48   1.951       .  S
O44          C55   1.272       .  A
O44        Cd337   2.046       .  S
Cd45         O47   2.095       .  S
Cd45         O48   2.004       .  S
Cd46         O50   2.106       .  S
Cd46         O59   2.110       .  S
Cd46         O48   2.012       .  S
O47          C57   1.279       .  A
O48         Cd49   1.989       .  S
Cd49        O332   2.045       .  S
Cd49        O339   2.049       .  S
O50          C57   1.281       .  A
O51        Cd337   2.050       .  S
C52          O56   1.278       .  A
C52         C783   1.450   1_545  S
C53         C242   1.447       .  S
O54         C326   1.277       .  A
C55         O329   1.275       .  A
C55         C222   1.476       .  S
C57         C209   1.450       .  S
C58          O59   1.277       .  A
C58         C232   1.473       .  S
C60          C61   1.543       .  S
C60          C66   1.546       .  S
C60          C64   1.530       .  S
C60         C198   1.541       .  S
C61          H68   1.085       .  S
C61          C62   1.368       .  D
C62          C63   1.535       .  S
C62         C225   1.488       .  S
C63          C67   1.534       .  S
C63          C65   1.552       .  S
C63          H69   1.106       .  S
C64          H70   1.086       .  S
C64          C65   1.375       .  D
C65          C72   1.533       .  S
C66          H71   1.084       .  S
C66          C67   1.367       .  D
C67         C215   1.491       .  S
C72         C208   1.486       .  S
C72         C210   1.485       .  S
C72         C253   1.484       .  S
O73          C89   1.275       .  A
O73         Zn79   2.043       .  S
C74          O90   1.276       .  A
C74          O87   1.276       .  A
C74         C172   1.449       .  S
O75          C88   1.281       .  A
O75         Cd82   2.106   1_556  S
O76          C94   1.278   1_554  A
O76         Cd85   2.091       .  S
O77          C91   1.271       .  A
O77         Cd81   2.044       .  S
O78          C89   1.269       .  A
O78         Cd81   2.032       .  S
Zn79         O90   2.042       .  S
Zn79         O92   2.052       .  S
Zn79         O84   1.957       .  S
O80          C91   1.277       .  A
O80         Cd85   2.088       .  S
Cd81         O83   2.046       .  S
Cd81         O84   1.989       .  S
Cd82         O86   2.116       .  S
Cd82         O95   2.110   1_554  S
Cd82         O84   2.017       .  S
O83          C93   1.270       .  A
O84         Cd85   2.008       .  S
Cd85         O87   2.093       .  S
O86          C93   1.277       .  A
C88          O92   1.280   1_556  A
C88        C1040   1.452   1_545  S
C89         C754   1.474   1_545  S
C91         C188   1.480       .  S
C93         C247   1.474       .  S
C94          O95   1.282       .  A
C94         C462   1.450       .  S
C96          C97   1.528       .  S
C96         C102   1.544       .  S
C96         C100   1.547       .  S
C96         C283   1.539       .  S
C97         H104   1.086       .  S
C97          C98   1.372       .  D
C98          C99   1.552       .  S
C98         C108   1.534       .  S
C99         C103   1.536       .  S
C99         C101   1.536       .  S
C99         H105   1.104       .  S
C100        H106   1.084       .  S
C100        C101   1.370       .  D
C101        C191   1.496       .  S
C102        H107   1.083       .  S
C102        C103   1.369       .  D
C103        C181   1.491       .  S
C108        C169   1.482       .  S
C108        C173   1.485       .  S
C108        C175   1.488       .  S
O109        C125   1.276       .  A
O109       Zn115   2.047       .  S
C110        O126   1.276       .  A
C110        O123   1.270       .  A
C110        C150   1.481       .  S
O111        C124   1.281       .  A
O111       Cd118   2.103       .  S
O112        C130   1.272       .  A
O112       Cd121   2.053       .  S
O113        C127   1.275       .  A
O113       Cd117   2.074       .  S
O114        C125   1.274       .  A
O114       Cd117   2.078       .  S
Zn115       O126   2.052       .  S
Zn115       O128   2.053       .  S
Zn115       O120   1.951       .  S
O116        C127   1.270       .  A
O116       Cd121   2.039       .  S
Cd117       O119   2.080       .  S
Cd117       O120   2.002       .  S
Cd118       O122   2.119       .  S
Cd118       O131   2.114       .  S
Cd118       O120   2.010       .  S
O119        C129   1.276       .  A
O120       Cd121   1.988       .  S
Cd121       O123   2.042       .  S
O122        C129   1.283       .  A
C124        O128   1.280       .  A
C124        C145   1.451       .  S
C125        C170   1.446       .  S
C127        C160   1.473       .  S
C129        C723   1.451       .  S
C130        O131   1.278       .  A
C130        C201   1.475       .  S
C132        C133   1.546       .  S
C132        C138   1.543       .  S
C132        C136   1.530       .  S
C132        C235   1.540       .  S
C133        H140   1.083       .  S
C133        C134   1.368       .  D
C134        C135   1.535       .  S
C134        C163   1.492       .  S
C135        C139   1.537       .  S
C135        C137   1.551       .  S
C135        H141   1.105       .  S
C136        H142   1.086       .  S
C136        C137   1.374       .  D
C137        C144   1.534       .  S
C138        H143   1.085       .  S
C138        C139   1.369       .  D
C139        C153   1.491       .  S
C144        C146   1.485       .  S
C144        C148   1.485       .  S
C144        C171   1.486       .  S
C145        C146   1.216       .  T
C147        C705   1.450   1_545  S
C147        C148   1.215       .  T
C149        C150   1.403       .  A
C149        C154   1.394       .  A
C149        H155   1.083       .  S
C150        C439   1.406       .  A
C151        C152   1.402   1_556  A
C151        C438   1.406       .  A
C151        H156   1.083       .  S
C152        C153   1.406       .  A
C152        H157   1.083       .  S
C153        C442   1.408       .  A
C154        C441   1.409       .  A
C154        H158   1.081       .  S
C159        C448   1.406       .  A
C159        C740   1.396   1_556  A
C159        H165   1.083       .  S
C160        C447   1.406       .  A
C160        C737   1.399       .  A
C161        C162   1.396       .  A
C161        C736   1.400   1_545  A
C161        H166   1.083       .  S
C162        C451   1.410       .  A
C162        H167   1.078       .  S
C163        C164   1.405   1_545  A
C163        C450   1.410   1_554  A
C164        C735   1.396   1_554  A
C164        H168   1.082       .  S
C169        C170   1.213       .  T
C171        C172   1.215       .  T
C173        C174   1.215       .  T
C174        C382   1.450       .  S
C175        C176   1.217       .  T
C176        C952   1.452       .  S
C177        C178   1.402       .  A
C177        C182   1.392       .  A
C177        H183   1.083       .  S
C178        C665   1.475       .  S
C178        C755   1.405       .  A
C179        C754   1.405       .  A
C179        C756   1.402       .  A
C179        H184   1.083   1_565  S
C180        C181   1.406       .  A
C180        C755   1.401       .  A
C180        H185   1.082       .  S
C181        C182   1.409       .  A
C182        H186   1.081       .  S
C187        C188   1.407       .  A
C187        C192   1.397       .  A
C187        H193   1.083       .  S
C188        C189   1.401       .  A
C189        C190   1.398       .  A
C189        H194   1.083       .  S
C190        C191   1.411       .  A
C190        H195   1.078       .  S
C191        C192   1.406       .  A
C192        H196   1.082       .  S
C197        C198   1.412       .  A
C197        C202   1.403   1_655  A
C197        H203   1.082       .  S
C198        C199   1.413       .  A
C199        C200   1.401   1_655  A
C199        H204   1.081       .  S
C200        C201   1.400       .  A
C200        H205   1.083       .  S
C201        C202   1.402       .  A
C202        H206   1.083       .  S
C207        C628   1.450       .  S
C207        C208   1.216       .  T
C209        C210   1.215       .  T
C211        C216   1.398       .  A
C211        C788   1.401       .  A
C211        H505   1.083       .  S
C212        C213   1.407       .  A
C212        C787   1.402   1_545  A
C213        C790   1.397       .  A
C213        H218   1.083       .  S
C214        C215   1.404       .  A
C214        C789   1.394       .  A
C214        H795   1.083       .  S
C215        C216   1.410       .  A
C216        H220   1.078       .  S
H217        C499   1.083       .  S
H219        C790   1.082       .  S
C221        C222   1.406       .  A
C221        C226   1.401       .  A
C221        H227   1.083       .  S
C222        C223   1.402       .  A
C223        C224   1.392       .  A
C223        H228   1.083       .  S
C224        C225   1.407       .  A
C224        H229   1.082       .  S
C225        C226   1.406       .  A
C226        H230   1.083       .  S
C231        C232   1.400       .  A
C231        C236   1.400   1_655  A
C231        H237   1.083       .  S
C232        C233   1.402       .  A
C233        C234   1.403   1_655  A
C233        H238   1.083       .  S
C234        C235   1.412       .  A
C234        H239   1.082       .  S
C235        C236   1.413       .  A
C236        H240   1.081       .  S
C241        C324   1.483       .  S
C241        C242   1.214       .  T
C243        C244   1.412       .  A
C243        C248   1.399       .  A
C243        H249   1.080       .  S
C244        C245   1.412       .  A
C245        C246   1.405       .  A
C245        H250   1.083       .  S
C246        C247   1.402       .  A
C246        H251   1.083       .  S
C247        C248   1.400       .  A
C248        H252   1.084       .  S
C253        C254   1.214       .  T
C255        C256   1.217       .  T
C256        C592   1.452   1_545  S
C257        C258   1.214       .  T
C259        C264   1.395       .  A
C259        C836   1.399   1_545  A
C259        H265   1.083       .  S
C260        C261   1.407       .  A
C260        C835   1.400       .  A
C261        C838   1.396       .  A
C261        H266   1.083       .  S
C262        C263   1.405   1_565  A
C262        C837   1.394       .  A
C262        H843   1.082       .  S
C263        C264   1.410       .  A
C264        H268   1.078       .  S
H267        C838   1.082       .  S
C269        C270   1.404       .  A
C269        C274   1.396       .  A
C269        H275   1.083       .  S
C270        C271   1.406       .  A
C271        C272   1.402       .  A
C271        H276   1.083       .  S
C272        C273   1.406       .  A
C272        H277   1.083       .  S
C273        C274   1.408       .  A
C274        H278   1.082       .  S
C279        C280   1.402       .  A
C279        C284   1.402       .  A
C279        H285   1.083       .  S
C280        C281   1.400       .  A
C281        C282   1.401       .  A
C281        H286   1.083       .  S
C282        C283   1.413       .  A
C282        H287   1.080       .  S
C283        C284   1.412       .  A
C284        H288   1.083       .  S
O289        C305   1.275       .  A
O289       Zn295   2.039       .  S
C290        O306   1.276       .  A
C290        O303   1.270       .  A
C290        C548   1.474       .  S
O291        C304   1.281       .  A
O291       Cd298   2.112       .  S
O292        C310   1.271       .  A
O292       Cd301   2.048       .  S
O293        C307   1.276       .  A
O293       Cd297   2.099       .  S
O294        C305   1.277       .  A
O294       Cd297   2.092       .  S
Zn295       O306   2.028       .  S
Zn295       O308   2.046       .  S
Zn295       O300   1.952       .  S
O296        C307   1.271       .  A
O296       Cd301   2.050       .  S
Cd297       O299   2.095       .  S
Cd297       O300   2.005       .  S
Cd298       O302   2.103       .  S
Cd298       O311   2.115       .  S
Cd298       O300   2.012       .  S
O299        C309   1.280       .  A
O300       Cd301   1.988       .  S
Cd301       O303   2.034       .  S
O302        C309   1.282       .  A
C304        O308   1.278       .  A
C304       C1120   1.453       .  S
C305        C542   1.448       .  S
C307        C558   1.482       .  S
C309        C545   1.448       .  S
C310        O311   1.278       .  A
C310        C568   1.474       .  S
C312        C313   1.544       .  S
C312        C318   1.547       .  S
C312        C316   1.530       .  S
C312        C532   1.541       .  S
C313        H320   1.086       .  S
C313        C314   1.369       .  D
C314        C315   1.536       .  S
C314        C561   1.492       .  S
C315        C319   1.536       .  S
C315        C317   1.551       .  S
C315        H321   1.105       .  S
C316        H322   1.086       .  S
C316        C317   1.373       .  D
C318        H323   1.082       .  S
C318        C319   1.370       .  D
C319        C551   1.493       .  S
C324        C543   1.487   1_554  S
C324        C546   1.483   1_554  S
O325        C341   1.275       .  A
O325       Zn331   2.039       .  S
C326        O339   1.271       .  A
C326        C500   1.481   1_554  S
O327        C340   1.281       .  A
O327       Cd334   2.107       .  S
O328        C346   1.272       .  A
O328       Cd337   2.057       .  S
O329       Cd333   2.086       .  S
O330        C341   1.276       .  A
O330       Cd333   2.087       .  S
Zn331       O342   2.038       .  S
Zn331       O344   2.037       .  S
Zn331       O336   1.951       .  S
O332        C343   1.271       .  A
Cd333       O335   2.095       .  S
Cd333       O336   2.004       .  S
Cd334       O338   2.105       .  S
Cd334       O347   2.109       .  S
Cd334       O336   2.012       .  S
O335        C345   1.279       .  A
O336       Cd337   1.990       .  S
O338        C345   1.281       .  A
C340        O344   1.277       .  A
C340       C1071   1.449   1_545  S
C341        C530   1.447       .  S
C343        C510   1.477   1_554  S
C345        C497   1.450       .  S
C346        O347   1.277       .  A
C346        C520   1.474       .  S
C348        C349   1.545       .  S
C348        C354   1.544       .  S
C348        C352   1.529       .  S
C348        C486   1.540       .  S
C349        H356   1.084       .  S
C349        C350   1.368       .  D
C350        C351   1.533       .  S
C350        C513   1.486       .  S
C351        C355   1.537       .  S
C351        C353   1.552       .  S
C351        H357   1.106       .  S
C352        H358   1.086       .  S
C352        C353   1.374       .  D
C353        C360   1.533       .  S
C354        H359   1.085       .  S
C354        C355   1.369       .  D
C355        C503   1.493       .  S
C360        C496   1.486       .  S
C360        C498   1.486       .  S
C360        C541   1.484       .  S
O361        C377   1.275       .  A
O361       Zn367   2.040       .  S
C362        O378   1.276       .  A
C362        O375   1.276       .  A
C362        C460   1.449       .  S
O363        C376   1.281       .  A
O363       Cd370   2.107       .  S
O364        C382   1.278       .  A
O364       Cd373   2.090       .  S
O365        C379   1.271       .  A
O365       Cd369   2.044       .  S
O366        C377   1.269       .  A
O366       Cd369   2.035       .  S
Zn367       O378   2.042       .  S
Zn367       O380   2.050       .  S
Zn367       O372   1.956       .  S
O368        C379   1.277       .  A
O368       Cd373   2.090       .  S
Cd369       O371   2.047       .  S
Cd369       O372   1.990       .  S
Cd370       O374   2.117       .  S
Cd370       O383   2.110       .  S
Cd370       O372   2.016       .  S
O371        C381   1.270       .  A
O372       Cd373   2.009       .  S
Cd373       O375   2.093       .  S
O374        C381   1.278       .  A
C376        O380   1.279       .  A
C376        C752   1.452   1_545  S
C377       C1042   1.474   1_545  S
C379        C476   1.481       .  S
C381        C535   1.475       .  S
C382        O383   1.282       .  A
C384        C385   1.529       .  S
C384        C390   1.545       .  S
C384        C388   1.547       .  S
C384        C571   1.541       .  S
C385        H392   1.086       .  S
C385        C386   1.373       .  D
C386        C387   1.552       .  S
C386        C396   1.534       .  S
C387        C391   1.535       .  S
C387        C389   1.537       .  S
C387        H393   1.104       .  S
C388        H394   1.085       .  S
C388        C389   1.371       .  D
C389        C479   1.497       .  S
C390        H395   1.083       .  S
C390        C391   1.368       .  D
C391        C469   1.490       .  S
C396        C457   1.483       .  S
C396        C461   1.485       .  S
C396        C463   1.488       .  S
O397        C413   1.276       .  A
O397       Zn403   2.047       .  S
C398        O414   1.276       .  A
C398        O411   1.270       .  A
C398        C438   1.479       .  S
O399        C412   1.281       .  A
O399       Cd406   2.102       .  S
O400        C418   1.272       .  A
O400       Cd409   2.053       .  S
O401        C415   1.275       .  A
O401       Cd405   2.075       .  S
O402        C413   1.274       .  A
O402       Cd405   2.080       .  S
Zn403       O414   2.051       .  S
Zn403       O416   2.054       .  S
Zn403       O408   1.952       .  S
O404        C415   1.271       .  A
O404       Cd409   2.043       .  S
Cd405       O407   2.082       .  S
Cd405       O408   2.002       .  S
Cd406       O410   2.115       .  S
Cd406       O419   2.112       .  S
Cd406       O408   2.011       .  S
O407        C417   1.277       .  A
O408       Cd409   1.990       .  S
Cd409       O411   2.042       .  S
O410        C417   1.282       .  A
C412        O416   1.280       .  A
C412        C433   1.451       .  S
C413        C458   1.446       .  S
C415        C448   1.474       .  S
C417       C1011   1.450       .  S
C418        O419   1.277       .  A
C418        C489   1.474       .  S
C420        C421   1.546       .  S
C420        C426   1.544       .  S
C420        C424   1.529       .  S
C420        C523   1.541       .  S
C421        H428   1.083       .  S
C421        C422   1.368       .  D
C422        C423   1.536       .  S
C422        C451   1.494       .  S
C423        C427   1.538       .  S
C423        C425   1.552       .  S
C423        H429   1.104       .  S
C424        H430   1.086       .  S
C424        C425   1.374       .  D
C425        C432   1.534       .  S
C426        H431   1.084       .  S
C426        C427   1.369       .  D
C427        C441   1.494       .  S
C432        C434   1.486       .  S
C432        C436   1.486       .  S
C432        C459   1.485       .  S
C433        C434   1.216       .  T
C435        C993   1.450   1_545  S
C435        C436   1.216       .  T
C437        C438   1.403       .  A
C437        C442   1.394   1_556  A
C437        H443   1.083       .  S
C439        C440   1.403       .  A
C439        H444   1.083       .  S
C440        C441   1.407       .  A
C440        H445   1.082       .  S
C442        H446   1.082       .  S
C447       C1028   1.395       .  A
C447        H453   1.083       .  S
C448       C1025   1.399       .  A
C449       C1024   1.400   1_545  A
C449        C450   1.395       .  A
C449        H454   1.083       .  S
C450        H455   1.078   1_556  S
C451        C452   1.406   1_545  A
C452       C1023   1.396       .  A
C452        H456   1.082       .  S
C457        C458   1.214       .  T
C459        C460   1.215       .  T
C461        C462   1.215       .  T
C463        C464   1.217       .  T
C464        C664   1.452       .  S
C465        C466   1.402       .  A
C465        C470   1.391       .  A
C465        H471   1.084       .  S
C466        C953   1.474       .  S
C466       C1043   1.405       .  A
C467       C1042   1.405       .  A
C467       C1044   1.401       .  A
C467        H472   1.083   1_565  S
C468       C1043   1.401       .  A
C468        C469   1.406       .  A
C468        H473   1.083       .  S
C469        C470   1.408       .  A
C470        H474   1.082       .  S
C475        C476   1.407       .  A
C475        C480   1.397       .  A
C475        H481   1.083       .  S
C476        C477   1.401       .  A
C477        C478   1.398       .  A
C477        H482   1.083       .  S
C478        C479   1.412       .  A
C478        H483   1.078       .  S
C479        C480   1.406       .  A
C480        H484   1.082       .  S
C485        C486   1.412       .  A
C485        C490   1.400   1_655  A
C485        H491   1.081       .  S
C486        C487   1.413       .  A
C487        C488   1.403       .  A
C487        H492   1.083       .  S
C488        C489   1.401   1_655  A
C488        H493   1.083   1_655  S
C489        C490   1.401       .  A
C490        H494   1.083       .  S
C495        C916   1.451       .  S
C495        C496   1.216       .  T
C497        C498   1.216       .  T
C499       C1076   1.401       .  A
C499        C504   1.398       .  A
C500       C1075   1.402   1_545  A
C500        C501   1.407       .  A
C501       C1078   1.398       .  A
C501        H506   1.083       .  S
C502       C1077   1.396       .  A
C502        C503   1.405       .  A
C502       H1083   1.082       .  S
C503        C504   1.410       .  A
C504        H508   1.078       .  S
H507       C1078   1.082       .  S
C509        C510   1.406       .  A
C509        C514   1.402       .  A
C509        H515   1.083       .  S
C510        C511   1.402       .  A
C511        C512   1.392       .  A
C511        H516   1.083       .  S
C512        C513   1.407       .  A
C512        H517   1.082       .  S
C513        C514   1.405       .  A
C514        H518   1.083       .  S
C519        C520   1.400       .  A
C519        C524   1.400   1_655  A
C519        H525   1.083       .  S
C520        C521   1.402       .  A
C521        C522   1.403   1_655  A
C521        H526   1.083       .  S
C522        C523   1.412       .  A
C522        H527   1.082       .  S
C523        C524   1.413       .  A
C524        H528   1.082       .  S
C529        C530   1.214       .  T
C531        C532   1.412       .  A
C531        C536   1.399       .  A
C531        H537   1.080       .  S
C532        C533   1.412       .  A
C533        C534   1.405       .  A
C533        H538   1.083       .  S
C534        C535   1.402       .  A
C534        H539   1.083       .  S
C535        C536   1.401       .  A
C536        H540   1.084       .  S
C541        C542   1.215       .  T
C543        C544   1.217       .  T
C544        C880   1.452   1_545  S
C545        C546   1.214       .  T
C547       C1124   1.399   1_545  A
C547        C552   1.395       .  A
C547        H553   1.083       .  S
C548       C1123   1.399       .  A
C548        C549   1.406       .  A
C549       C1126   1.395       .  A
C549        H554   1.083       .  S
C550       C1125   1.395       .  A
C550        C551   1.405   1_565  A
C550       H1131   1.082       .  S
C551        C552   1.410       .  A
C552        H556   1.077       .  S
H555       C1126   1.082       .  S
C557        C558   1.404       .  A
C557        C562   1.396       .  A
C557        H563   1.083       .  S
C558        C559   1.406       .  A
C559        C560   1.403       .  A
C559        H564   1.083       .  S
C560        C561   1.406       .  A
C560        H565   1.083       .  S
C561        C562   1.408       .  A
C562        H566   1.082       .  S
C567        C568   1.402       .  A
C567        C572   1.404       .  A
C567        H573   1.083       .  S
C568        C569   1.400       .  A
C569        C570   1.400       .  A
C569        H574   1.084       .  S
C570        C571   1.413       .  A
C570        H575   1.080       .  S
C571        C572   1.412       .  A
C572        H576   1.083       .  S
O577        C593   1.275       .  A
O577       Zn583   2.038       .  S
C578        O594   1.275       .  A
C578        O591   1.270       .  A
C578        C836   1.473       .  S
O579        C592   1.281       .  A
O579       Cd586   2.112       .  S
O580        C598   1.271       .  A
O580       Cd589   2.048       .  S
O581        C595   1.276       .  A
O581       Cd585   2.099       .  S
O582        C593   1.276       .  A
O582       Cd585   2.091       .  S
Zn583       O594   2.026       .  S
Zn583       O596   2.043       .  S
Zn583       O588   1.951       .  S
O584        C595   1.271       .  A
O584       Cd589   2.048       .  S
Cd585       O587   2.094       .  S
Cd585       O588   2.005       .  S
Cd586       O590   2.105       .  S
Cd586       O599   2.117       .  S
Cd586       O588   2.012       .  S
O587        C597   1.280       .  A
O588       Cd589   1.987       .  S
Cd589       O591   2.033       .  S
O590        C597   1.282       .  A
C592        O596   1.278       .  A
C593        C830   1.448       .  S
C595        C846   1.483       .  S
C597        C833   1.448       .  S
C598        O599   1.278       .  A
C598        C856   1.474       .  S
C600        C601   1.544       .  S
C600        C606   1.546       .  S
C600        C604   1.528       .  S
C600        C820   1.540       .  S
C601        H608   1.085       .  S
C601        C602   1.370       .  D
C602        C603   1.537       .  S
C602        C849   1.494       .  S
C603        C607   1.536       .  S
C603        C605   1.552       .  S
C603        H609   1.105       .  S
C604        H610   1.086   1_554  S
C604        C605   1.372       .  D
C605        C900   1.534       .  S
C606        H611   1.083       .  S
C606        C607   1.370       .  D
C607        C839   1.493       .  S
C612        C893   1.533       .  S
C612       C1105   1.482       .  S
C612        C831   1.489       .  S
C612        C834   1.483       .  S
O613        C629   1.275       .  A
O613       Zn619   2.038       .  S
C614        O918   1.275       .  A
C614        O627   1.270       .  A
C614        C788   1.476       .  S
O615        C628   1.282       .  A
O615       Cd622   2.110       .  S
O616        C634   1.272       .  A
O616       Cd625   2.054       .  S
O617        C919   1.276       .  A
O617       Cd621   2.090       .  S
O618        C629   1.276       .  A
O618       Cd621   2.088       .  S
Zn619       O630   2.037       .  S
Zn619       O632   2.037       .  S
Zn619       O624   1.953       .  S
O620        C631   1.271       .  A
O620       Cd913   2.045       .  S
Cd621       O623   2.099       .  S
Cd621       O624   2.007       .  S
Cd622       O626   2.106       .  S
Cd622       O635   2.111       .  S
Cd622       O624   2.013       .  S
O623        C633   1.280       .  A
O624       Cd625   1.989       .  S
Cd625       O908   2.042       .  S
Cd625       O915   2.042       .  S
O626        C633   1.281       .  A
O627       Cd913   2.039       .  S
C628        O632   1.277       .  A
C629        C818   1.446       .  S
O630        C902   1.276       .  A
C631        O905   1.275       .  A
C631        C798   1.478       .  S
C633        C785   1.452       .  S
C634        O635   1.277       .  A
C634        C808   1.474       .  S
C636        C637   1.545       .  S
C636        C642   1.545       .  S
C636        C640   1.529       .  S
C636        C774   1.540       .  S
C637        H644   1.084       .  S
C637        C638   1.368       .  D
C638        C639   1.533       .  S
C638        C801   1.487       .  S
C639        C643   1.539       .  S
C639        C641   1.554       .  S
C639        H645   1.106       .  S
C640        H646   1.086       .  S
C640        C641   1.374       .  D
C641        C648   1.534       .  S
C642        H647   1.084       .  S
C642        C643   1.369       .  D
C643        C791   1.496       .  S
C648        C784   1.486       .  S
C648        C786   1.487       .  S
C648        C829   1.484       .  S
O649        C665   1.275       .  A
O649       Zn655   2.039       .  S
C650        O666   1.276       .  A
C650        O663   1.276       .  A
C650        C748   1.450       .  S
O651        C664   1.281       .  A
O651       Cd658   2.108   1_556  S
O652        C670   1.278   1_554  A
O652       Cd661   2.088       .  S
O653        C667   1.270       .  A
O653       Cd657   2.044       .  S
O654        C665   1.269       .  A
O654       Cd657   2.032       .  S
Zn655       O666   2.043       .  S
Zn655       O668   2.052       .  S
Zn655       O660   1.954       .  S
O656        C667   1.277       .  A
O656       Cd661   2.089       .  S
Cd657       O659   2.045       .  S
Cd657       O660   1.989       .  S
Cd658       O662   2.118   1_554  S
Cd658       O671   2.109   1_554  S
Cd658       O660   2.016       .  S
O659        C669   1.270       .  A
O660       Cd661   2.007       .  S
Cd661       O663   2.095       .  S
O662        C669   1.278   1_556  A
C664        O668   1.280   1_556  A
C667        C764   1.481       .  S
C669        C823   1.474       .  S
C670        O671   1.282       .  A
C670       C1038   1.449       .  S
C672        C673   1.529       .  S
C672        C678   1.545       .  S
C672        C676   1.546       .  S
C672        C859   1.541       .  S
C673        H680   1.086       .  S
C673        C674   1.373       .  D
C674        C675   1.551       .  S
C674        C684   1.534       .  S
C675        C679   1.533       .  S
C675        C677   1.538       .  S
C675        H681   1.105       .  S
C676        H682   1.085       .  S
C676        C677   1.371       .  D
C677        C767   1.497       .  S
C678        H683   1.083       .  S
C678        C679   1.368       .  D
C679        C757   1.487       .  S
C684        C745   1.483       .  S
C684        C749   1.484       .  S
C684        C751   1.487       .  S
O685        C701   1.276       .  A
O685       Zn691   2.045       .  S
C686        O702   1.276       .  A
C686        O699   1.270       .  A
C686        C726   1.478       .  S
O687        C700   1.281       .  A
O687       Cd694   2.102       .  S
O688        C706   1.272       .  A
O688       Cd697   2.054       .  S
O689        C703   1.276       .  A
O689       Cd693   2.078       .  S
O690        C701   1.275       .  A
O690       Cd693   2.083       .  S
Zn691       O702   2.049       .  S
Zn691       O704   2.050       .  S
Zn691       O696   1.954       .  S
O692        C703   1.271       .  A
O692       Cd697   2.046       .  S
Cd693       O695   2.084       .  S
Cd693       O696   2.003       .  S
Cd694       O698   2.113       .  S
Cd694       O707   2.111       .  S
Cd694       O696   2.013       .  S
O695        C705   1.277       .  A
O696       Cd697   1.991       .  S
Cd697       O699   2.043       .  S
O698        C705   1.282       .  A
C700        O704   1.280       .  A
C700        C721   1.450       .  S
C701        C746   1.447       .  S
C703        C736   1.476       .  S
C706        O707   1.277       .  A
C706        C777   1.474       .  S
C708        C709   1.547       .  S
C708        C714   1.543       .  S
C708        C712   1.530       .  S
C708        C811   1.541       .  S
C709        H716   1.083       .  S
C709        C710   1.369       .  D
C710        C711   1.535       .  S
C710        C739   1.493       .  S
C711        C715   1.537       .  S
C711        C713   1.550       .  S
C711        H717   1.104       .  S
C712        H718   1.086       .  S
C712        C713   1.374       .  D
C713        C720   1.533       .  S
C714        H719   1.085       .  S
C714        C715   1.368       .  D
C715        C729   1.492       .  S
C720        C722   1.485       .  S
C720        C724   1.486       .  S
C720        C747   1.486       .  S
C721        C722   1.216       .  T
C723        C724   1.216       .  T
C725        C726   1.403       .  A
C725        C730   1.394       .  A
C725        H731   1.083       .  S
C726       C1015   1.406       .  A
C727       C1014   1.406       .  A
C727        C728   1.402   1_556  A
C727        H732   1.083       .  S
C728        C729   1.406       .  A
C728        H733   1.083       .  S
C729       C1018   1.408       .  A
C730       C1017   1.408       .  A
C730        H734   1.082       .  S
C735       C1024   1.406       .  A
C735        H741   1.083       .  S
C736       C1023   1.406       .  A
C737        C738   1.395       .  A
C737        H742   1.083       .  S
C738       C1027   1.410       .  A
C738        H743   1.078       .  S
C739       C1026   1.410       .  A
C739        C740   1.406       .  A
C740        H744   1.082       .  S
C745        C746   1.214       .  T
C747        C748   1.216       .  T
C749        C750   1.215       .  T
C750        C958   1.449       .  S
C751        C752   1.217       .  T
C753        C754   1.402       .  A
C753        C758   1.392       .  A
C753        H759   1.083       .  S
C755        H760   1.083       .  S
C756        C757   1.405       .  A
C756        H761   1.083       .  S
C757        C758   1.407       .  A
C758        H762   1.082       .  S
C763        C764   1.407       .  A
C763        C768   1.398       .  A
C763        H769   1.083       .  S
C764        C765   1.400       .  A
C765        C766   1.397       .  A
C765        H770   1.083       .  S
C766        C767   1.411       .  A
C766        H771   1.078       .  S
C767        C768   1.406       .  A
C768        H772   1.082       .  S
C773        C774   1.412       .  A
C773        C778   1.400   1_655  A
C773        H779   1.081       .  S
C774        C775   1.413       .  A
C775        C776   1.403       .  A
C775        H780   1.082       .  S
C776        C777   1.401   1_655  A
C776        H781   1.083   1_655  S
C777        C778   1.401       .  A
C778        H782   1.083       .  S
C783        C784   1.216       .  T
C785        C786   1.216       .  T
C787        C792   1.399       .  A
C787       H1081   1.083       .  S
C788        C789   1.406       .  A
C789        H794   1.083       .  S
C790        C791   1.406   1_545  A
C791        C792   1.410       .  A
C792        H796   1.078       .  S
H793       C1075   1.083       .  S
C797        C798   1.407       .  A
C797        C802   1.403       .  A
C797        H803   1.083       .  S
C798        C799   1.402       .  A
C799        C800   1.392       .  A
C799        H804   1.083       .  S
C800        C801   1.407       .  A
C800        H805   1.082       .  S
C801        C802   1.405       .  A
C802        H806   1.083       .  S
C807        C808   1.400       .  A
C807        C812   1.400   1_655  A
C807        H813   1.083       .  S
C808        C809   1.402       .  A
C809        C810   1.403   1_655  A
C809        H814   1.083       .  S
C810        C811   1.412       .  A
C810        H815   1.082       .  S
C811        C812   1.413       .  A
C812        H816   1.081       .  S
C817        C900   1.482       .  S
C817        C818   1.214       .  T
C819        C820   1.412       .  A
C819        C824   1.400       .  A
C819        H825   1.081       .  S
C820        C821   1.412       .  A
C821        C822   1.404       .  A
C821        H826   1.082       .  S
C822        C823   1.402       .  A
C822        H827   1.083       .  S
C823        C824   1.401       .  A
C824        H828   1.084       .  S
C829        C830   1.214       .  T
C831        C832   1.217       .  T
C833        C834   1.214       .  T
C835        C840   1.395       .  A
C835        H841   1.083       .  S
C836        C837   1.406       .  A
C837        H842   1.083       .  S
C838        C839   1.405       .  A
C839        C840   1.410       .  A
C840        H844   1.077       .  S
C845        C846   1.404       .  A
C845        C850   1.395       .  A
C845        H851   1.083       .  S
C846        C847   1.406       .  A
C847        C848   1.404       .  A
C847        H852   1.083       .  S
C848        C849   1.407       .  A
C848        H853   1.083       .  S
C849        C850   1.408       .  A
C850        H854   1.082       .  S
C855        C856   1.402       .  A
C855        C860   1.403       .  A
C855        H861   1.083       .  S
C856        C857   1.400       .  A
C857        C858   1.401       .  A
C857        H862   1.083       .  S
C858        C859   1.413       .  A
C858        H863   1.080       .  S
C859        C860   1.412       .  A
C860        H864   1.083       .  S
O865        C881   1.275       .  A
O865       Zn871   2.040       .  S
C866        O882   1.276       .  A
C866        O879   1.270       .  A
C866       C1124   1.475       .  S
O867        C880   1.281       .  A
O867       Cd874   2.111       .  S
O868        C886   1.270       .  A
O868       Cd877   2.047       .  S
O869        C883   1.276       .  A
O869       Cd873   2.099       .  S
O870        C881   1.276       .  A
O870       Cd873   2.091       .  S
Zn871       O882   2.030       .  S
Zn871       O884   2.045       .  S
Zn871       O876   1.951       .  S
O872        C883   1.271       .  A
O872       Cd877   2.047       .  S
Cd873       O875   2.095       .  S
Cd873       O876   2.004       .  S
Cd874       O878   2.105       .  S
Cd874       O887   2.115       .  S
Cd874       O876   2.012       .  S
O875        C885   1.280       .  A
O876       Cd877   1.987       .  S
Cd877       O879   2.034       .  S
O878        C885   1.282       .  A
C880        O884   1.278       .  A
C881       C1118   1.448       .  S
C883       C1134   1.482       .  S
C885       C1121   1.449       .  S
C886        O887   1.278       .  A
C886       C1144   1.473       .  S
C888        C889   1.544       .  S
C888        C894   1.546       .  S
C888        C892   1.529       .  S
C888       C1108   1.539       .  S
C889        H896   1.085       .  S
C889        C890   1.370       .  D
C890        C891   1.537       .  S
C890       C1137   1.493       .  S
C891        C895   1.535       .  S
C891        C893   1.552       .  S
C891        H897   1.105       .  S
C892        H898   1.086       .  S
C892        C893   1.372       .  D
C894        H899   1.083       .  S
C894        C895   1.369       .  D
C895       C1127   1.492       .  S
C900       C1119   1.488   1_554  S
C900       C1122   1.484   1_554  S
O901        C917   1.274       .  A
O901       Zn907   2.036       .  S
C902        O915   1.270       .  A
C902       C1076   1.479   1_554  S
O903        C916   1.282       .  A
O903       Cd910   2.114       .  S
O904        C922   1.272       .  A
O904       Cd913   2.055       .  S
O905       Cd909   2.090       .  S
O906        C917   1.276       .  A
O906       Cd909   2.088       .  S
Zn907       O918   2.033       .  S
Zn907       O920   2.035       .  S
Zn907       O912   1.952       .  S
O908        C919   1.271       .  A
Cd909       O911   2.097       .  S
Cd909       O912   2.004       .  S
Cd910       O914   2.107       .  S
Cd910       O923   2.115       .  S
Cd910       O912   2.011       .  S
O911        C921   1.280       .  A
O912       Cd913   1.987       .  S
O914        C921   1.282       .  A
C916        O920   1.277       .  A
C917       C1106   1.446       .  S
C919       C1086   1.477   1_554  S
C921       C1073   1.451       .  S
C922        O923   1.278       .  A
C922       C1096   1.476       .  S
C924        C925   1.544       .  S
C924        C930   1.545       .  S
C924        C928   1.529       .  S
C924       C1062   1.541       .  S
C925        H932   1.084       .  S
C925        C926   1.368       .  D
C926        C927   1.534       .  S
C926       C1089   1.488       .  S
C927        C931   1.538       .  S
C927        C929   1.553       .  S
C927        H933   1.105       .  S
C928        H934   1.086       .  S
C928        C929   1.374       .  D
C929        C936   1.534       .  S
C930        H935   1.084       .  S
C930        C931   1.368       .  D
C931       C1079   1.496       .  S
C936       C1072   1.484       .  S
C936       C1074   1.486       .  S
C936       C1117   1.484       .  S
O937        C953   1.275       .  A
O937       Zn943   2.039       .  S
C938        O954   1.276       .  A
C938        O951   1.276       .  A
C938       C1036   1.449       .  S
O939        C952   1.281       .  A
O939       Cd946   2.107       .  S
O940        C958   1.278       .  A
O940       Cd949   2.088       .  S
O941        C955   1.271       .  A
O941       Cd945   2.045       .  S
O942        C953   1.269       .  A
O942       Cd945   2.031       .  S
Zn943       O954   2.042       .  S
Zn943       O956   2.052       .  S
Zn943       O948   1.955       .  S
O944        C955   1.277       .  A
O944       Cd949   2.087       .  S
Cd945       O947   2.043       .  S
Cd945       O948   1.989       .  S
Cd946       O950   2.117       .  S
Cd946       O959   2.109       .  S
Cd946       O948   2.016       .  S
O947        C957   1.270       .  A
O948       Cd949   2.007       .  S
Cd949       O951   2.093       .  S
O950        C957   1.278       .  A
C952        O956   1.280       .  A
C955       C1052   1.480       .  S
C957       C1111   1.473       .  S
C958        O959   1.282       .  A
C960        C961   1.529       .  S
C960        C966   1.545       .  S
C960        C964   1.546       .  S
C960       C1147   1.540       .  S
C961        H968   1.086       .  S
C961        C962   1.373       .  D
C962        C963   1.552       .  S
C962        C972   1.535       .  S
C963        C967   1.534       .  S
C963        C965   1.538       .  S
C963        H969   1.105       .  S
C964        H970   1.085       .  S
C964        C965   1.371       .  D
C965       C1055   1.497       .  S
C966        H971   1.083       .  S
C966        C967   1.368       .  D
C967       C1045   1.488       .  S
C972       C1033   1.483       .  S
C972       C1037   1.484       .  S
C972       C1039   1.487       .  S
O973        C989   1.276       .  A
O973       Zn979   2.046       .  S
C974        O990   1.276       .  A
C974        O987   1.270       .  A
C974       C1014   1.479       .  S
O975        C988   1.281       .  A
O975       Cd982   2.101       .  S
O976        C994   1.272       .  A
O976       Cd985   2.055       .  S
O977        C991   1.276       .  A
O977       Cd981   2.077       .  S
O978        C989   1.275       .  A
O978       Cd981   2.083       .  S
Zn979       O990   2.049       .  S
Zn979       O992   2.050       .  S
Zn979       O984   1.953       .  S
O980        C991   1.271       .  A
O980       Cd985   2.045       .  S
Cd981       O983   2.084       .  S
Cd981       O984   2.003       .  S
Cd982       O986   2.113       .  S
Cd982       O995   2.110       .  S
Cd982       O984   2.012       .  S
O983        C993   1.277       .  A
O984       Cd985   1.990       .  S
Cd985       O987   2.044       .  S
O986        C993   1.282       .  A
C988        O992   1.280       .  A
C988       C1009   1.449       .  S
C989       C1034   1.447       .  S
C991       C1024   1.475       .  S
C994        O995   1.277       .  A
C994       C1065   1.474       .  S
C996        C997   1.547       .  S
C996       C1002   1.542       .  S
C996       C1000   1.532       .  S
C996       C1099   1.542       .  S
C997       H1004   1.082       .  S
C997        C998   1.368       .  D
C998        C999   1.533       .  S
C998       C1027   1.491       .  S
C999       C1003   1.537       .  S
C999       C1001   1.550       .  S
C999       H1005   1.104       .  S
C1000      H1006   1.086       .  S
C1000      C1001   1.375       .  D
C1001      C1008   1.534       .  S
C1002      H1007   1.085       .  S
C1002      C1003   1.368       .  D
C1003      C1017   1.492       .  S
C1008      C1010   1.484       .  S
C1008      C1012   1.486       .  S
C1008      C1035   1.486       .  S
C1009      C1010   1.215       .  T
C1011      C1012   1.216       .  T
C1013      C1014   1.403       .  A
C1013      C1018   1.394   1_556  A
C1013      H1019   1.083       .  S
C1015      C1016   1.403       .  A
C1015      H1020   1.083       .  S
C1016      C1017   1.407       .  A
C1016      H1021   1.083       .  S
C1018      H1022   1.082       .  S
C1023      H1029   1.083       .  S
C1025      C1026   1.395   1_556  A
C1025      H1030   1.083       .  S
C1026      H1031   1.078       .  S
C1027      C1028   1.405       .  A
C1028      H1032   1.082       .  S
C1033      C1034   1.214       .  T
C1035      C1036   1.216       .  T
C1037      C1038   1.215       .  T
C1039      C1040   1.216       .  T
C1041      C1042   1.402       .  A
C1041      C1046   1.392       .  A
C1041      H1047   1.084       .  S
C1043      H1048   1.083       .  S
C1044      C1045   1.405       .  A
C1044      H1049   1.083       .  S
C1045      C1046   1.408       .  A
C1046      H1050   1.082       .  S
C1051      C1052   1.407       .  A
C1051      C1056   1.398       .  A
C1051      H1057   1.083       .  S
C1052      C1053   1.400       .  A
C1053      C1054   1.397       .  A
C1053      H1058   1.083       .  S
C1054      C1055   1.411       .  A
C1054      H1059   1.078       .  S
C1055      C1056   1.406       .  A
C1056      H1060   1.082       .  S
C1061      C1062   1.412       .  A
C1061      C1066   1.401   1_655  A
C1061      H1067   1.081       .  S
C1062      C1063   1.413       .  A
C1063      C1064   1.402   1_655  A
C1063      H1068   1.082       .  S
C1064      C1065   1.401       .  A
C1064      H1069   1.083       .  S
C1065      C1066   1.401       .  A
C1066      H1070   1.083       .  S
C1071      C1072   1.215       .  T
C1073      C1074   1.216       .  T
C1075      C1080   1.398       .  A
C1076      C1077   1.407       .  A
C1077      H1082   1.083       .  S
C1078      C1079   1.406   1_545  A
C1079      C1080   1.410       .  A
C1080      H1084   1.078       .  S
C1085      C1086   1.406       .  A
C1085      C1090   1.402       .  A
C1085      H1091   1.083       .  S
C1086      C1087   1.402       .  A
C1087      C1088   1.391       .  A
C1087      H1092   1.083       .  S
C1088      C1089   1.407       .  A
C1088      H1093   1.082       .  S
C1089      C1090   1.406       .  A
C1090      H1094   1.083       .  S
C1095      C1096   1.400       .  A
C1095      C1100   1.400   1_655  A
C1095      H1101   1.083       .  S
C1096      C1097   1.403       .  A
C1097      C1098   1.405   1_655  A
C1097      H1102   1.083       .  S
C1098      C1099   1.413       .  A
C1098      H1103   1.083       .  S
C1099      C1100   1.413       .  A
C1100      H1104   1.080       .  S
C1105      C1106   1.213       .  T
C1107      C1108   1.412       .  A
C1107      C1112   1.399       .  A
C1107      H1113   1.081       .  S
C1108      C1109   1.412       .  A
C1109      C1110   1.404       .  A
C1109      H1114   1.082       .  S
C1110      C1111   1.402       .  A
C1110      H1115   1.083       .  S
C1111      C1112   1.401       .  A
C1112      H1116   1.084       .  S
C1117      C1118   1.215       .  T
C1119      C1120   1.217       .  T
C1121      C1122   1.215       .  T
C1123      C1128   1.395       .  A
C1123      H1129   1.083       .  S
C1124      C1125   1.407       .  A
C1125      H1130   1.083       .  S
C1126      C1127   1.405       .  A
C1127      C1128   1.410       .  A
C1128      H1132   1.078       .  S
C1133      C1134   1.404       .  A
C1133      C1138   1.395       .  A
C1133      H1139   1.083       .  S
C1134      C1135   1.406       .  A
C1135      C1136   1.403       .  A
C1135      H1140   1.083       .  S
C1136      C1137   1.407       .  A
C1136      H1141   1.083       .  S
C1137      C1138   1.408       .  A
C1138      H1142   1.082       .  S
C1143      C1144   1.402       .  A
C1143      C1148   1.403       .  A
C1143      H1149   1.083       .  S
C1144      C1145   1.400       .  A
C1145      C1146   1.400       .  A
C1145      H1150   1.084       .  S
C1146      C1147   1.413       .  A
C1146      H1151   1.080       .  S
C1147      C1148   1.412       .  A
C1148      H1152   1.083       .  S
