geometry optimzed in LAMMPS
_audit_creation_date              2020-11-30 
_audit_creation_method            'lammps2cif' 
_symmetry_space_group_name_H-M    'P1' 
_symmetry_Int_Tables_number       1 
_symmetry_cell_setting            triclinic 
loop_ 
_symmetry_equiv_pos_as_xyz 
  x,y,z 
_cell_length_a                    51.67116123 
_cell_length_b                    51.63433764246966 
_cell_length_c                    37.43366375247703 
_cell_angle_alpha                 89.93953427030583 
_cell_angle_beta                  89.99644874403225 
_cell_angle_gamma                 120.23226438190075 
loop_ 
_atom_site_label 
_atom_site_type_symbol 
_atom_site_fract_x 
_atom_site_fract_y 
_atom_site_fract_z 
_atom_site_charge 
C1          C  0.05355363  0.38801586  0.16931572     0.80300
N2          N  0.05166231  0.36346930  0.18469631    -0.78000
C3          C  0.02565476  0.33690390  0.18453175     0.82700
N4          N  0.50076391  0.33472792  0.16843958    -0.78000
C5          C  0.50270275  0.35962866  0.15281151     0.82800
N6          N  0.02911508  0.38593260  0.15344736    -0.79700
C7          C  0.16512716  0.99999116  0.16957914     0.80300
N8          N  0.18976376  0.00184526  0.18458919    -0.78000
C9          C  0.21634226  0.02787287  0.18419783     0.82700
N10         N  0.21837477  0.05268314  0.16812582    -0.78000
C11         C  0.19336436  0.05072919  0.15281097     0.82800
N12         N  0.16711256  0.02445273  0.15386221    -0.79700
C13         C  0.99895281  0.16361015  0.32980080     0.80300
N14         N  0.02340053  0.16539042  0.34532353    -0.78000
C15         C  0.04961133  0.19181338  0.34673259     0.82700
N16         N  0.05152517  0.21686345  0.33154670    -0.78000
C17         C  0.02679625  0.21491257  0.31551914     0.82800
N18         N  0.00073584  0.18838490  0.31524034    -0.79700
C19         C  0.38710598  0.05293649  0.33226870     0.80300
N20         N  0.38526432  0.02830040  0.34736381    -0.78000
C21         C  0.35894750  0.50181470  0.34888776     0.82700
N22         N  0.33386305  0.50005786  0.33406092    -0.78000
C23         C  0.33584492  0.02533474  0.31806688     0.82800
N24         N  0.36238874  0.05136711  0.31796623    -0.79700
O25         O  0.28918340  0.49954120  0.28693789    -0.74400
O26         O  0.23804697  0.00336450  0.21455262    -0.74400
O27         O  0.29108611  0.00322197  0.21460694    -0.74500
O28         O  0.23608279  0.49976361  0.28699997    -0.74500
O29         O  0.26169058  0.05016005  0.28683962    -0.74400
O30         O  0.31633624  0.05322719  0.21532620    -0.74400
O31         O  0.26315330  0.05337073  0.21540439    -0.74400
O32         O  0.31458121  0.04992762  0.28692658    -0.74500
Ni33       Ni  0.26280212  0.99988781  0.25014946     1.25400
Ni34       Ni  0.28985145  0.05344069  0.25129429     1.25400
C35         C  0.31143611  0.02470986  0.29703392     0.87800
C36         C  0.24099424  0.02855804  0.20474082     0.87700
C37         C  0.31338930  0.02838658  0.20452419     0.87800
C38         C  0.23927369  0.02503704  0.29673182     0.87900
O39         O  0.05050602  0.26266115  0.21335876    -0.74400
O40         O  0.05221133  0.31518633  0.28688817    -0.74400
O41         O  0.05256372  0.26210084  0.28502079    -0.74500
O42         O  0.05003176  0.31536526  0.21542326    -0.74500
O43         O  0.49997714  0.28986194  0.21520319    -0.74400
O44         O  0.00258575  0.23677637  0.28490825    -0.74400
O45         O  0.00223508  0.28968495  0.28673439    -0.74400
O46         O  0.00053243  0.23702823  0.21327933    -0.74500
Ni47       Ni  0.05310554  0.28971652  0.25006480     1.25400
Ni48       Ni  0.99957523  0.26242435  0.25020394     1.25400
C49         C  0.02559317  0.24064125  0.20230225     0.87800
C50         C  0.02718465  0.31191863  0.29740081     0.87700
C51         C  0.02765217  0.23969653  0.29506661     0.87800
C52         C  0.02492502  0.31231654  0.20518256     0.87900
C53         C  0.33141289  0.02512055  0.00073499     0.80300
N54         N  0.33383162  0.00331165  0.48411597    -0.78000
C55         C  0.36003868  0.00324128  0.48377288     0.82700
N56         N  0.38465006  0.02585475  0.99993160    -0.78000
C57         C  0.38253380  0.04844306  0.01618978     0.82800
N58         N  0.35600346  0.04781789  0.01621516    -0.79700
C59         C  0.21955358  0.02503256  0.50176144     0.80300
N60         N  0.19504063  0.00273244  0.48565307    -0.78000
C61         C  0.16885362  0.00283324  0.48471933     0.82700
N62         N  0.16704684  0.02571507  0.50062897    -0.78000
C63         C  0.19155862  0.04777750  0.01775494     0.82800
N64         N  0.21732350  0.04691808  0.01835280    -0.79700
C65         C  0.02756180  0.22097939  0.00157150     0.80300
N66         N  0.04951409  0.21860933  0.48477548    -0.78000
C67         C  0.04925505  0.19220521  0.48350673     0.82700
N68         N  0.02664449  0.16763808  0.99965162    -0.78000
C69         C  0.00387797  0.16954639  0.01563646     0.82800
N70         N  0.00466394  0.19612074  0.01630500    -0.79700
C71         C  0.02581939  0.33182921  0.50116018     0.80300
N72         N  0.00376706  0.33423743  0.01727234    -0.78000
C73         C  0.00331312  0.36026474  0.01720876     0.82700
N74         N  0.02552833  0.38457758  0.50076825    -0.78000
C75         C  0.04814201  0.38260472  0.48435696     0.82800
N76         N  0.04798056  0.35631505  0.48487568    -0.79700
C77         C  0.05579787  0.19741950  0.15979950     0.80300
N78         N  0.05342455  0.21914027  0.17691684    -0.78000
C79         C  0.02678460  0.21814593  0.17930643     0.82700
N80         N  0.50179574  0.19481639  0.16401376    -0.78000
C81         C  0.50421511  0.17279739  0.14669396     0.82800
N82         N  0.03118926  0.17430501  0.14494741    -0.79700
C83         C  0.16556368  0.19471786  0.16305988     0.80300
N84         N  0.16725401  0.17193793  0.14772672    -0.78000
C85         C  0.19299390  0.17096439  0.14894252     0.82700
N86         N  0.21756616  0.19331748  0.16586490    -0.78000
C87         C  0.21579605  0.21632989  0.18143500     0.82800
N88         N  0.18980687  0.21671496  0.17983621    -0.79700
O89         O  0.16899118  0.07158747  0.12035873    -0.74400
O90         O  0.16640067  0.12249949  0.04729174    -0.74400
O91         O  0.16617230  0.06910082  0.04875206    -0.74500
O92         O  0.16878452  0.12456044  0.11874086    -0.74500
O93         O  0.21876446  0.14983770  0.11837193    -0.74400
O94         O  0.21614496  0.09405355  0.04858490    -0.74400
O95         O  0.21637427  0.14731379  0.04686724    -0.74400
O96         O  0.21897030  0.09674130  0.12010588    -0.74500
Ni97       Ni  0.16581309  0.09602673  0.08394405     1.25400
Ni98       Ni  0.21933703  0.12287427  0.08331598     1.25400
C99         C  0.19410659  0.07480197  0.13095572     0.87800
C100        C  0.19136708  0.14441964  0.03650034     0.87700
C101        C  0.19100213  0.07174251  0.03850125     0.87800
C102        C  0.19382807  0.14701825  0.12860870     0.87900
C103        C  0.35920029  0.38774022  0.16641468     0.80300
N104        N  0.38206410  0.38595590  0.15146085    -0.78000
C105        C  0.38242015  0.35989022  0.15150044     0.82700
N106        N  0.35937671  0.33496762  0.16714164    -0.78000
C107        C  0.33627504  0.33673654  0.18244842     0.82800
N108        N  0.33646015  0.36305573  0.18177031    -0.79700
C109        C  0.35858063  0.49924319  0.16611276     0.80300
N110        N  0.38241366  0.02444286  0.15153087    -0.78000
C111        C  0.38265171  0.05079506  0.15113698     0.82700
N112        N  0.35981857  0.05265929  0.16713706    -0.78000
C113        C  0.33703670  0.02774794  0.18321472     0.82800
N114        N  0.33734248  0.00166150  0.18285362    -0.79700
O115        O  0.45633861  0.33382267  0.12085222    -0.74400
O116        O  0.40485114  0.33653787  0.04896507    -0.74400
O117        O  0.45772899  0.33618476  0.04926990    -0.74500
O118        O  0.40327698  0.33411179  0.12048507    -0.74500
O119        O  0.42859640  0.38412534  0.12052439    -0.74400
O120        O  0.48306781  0.38619460  0.04925281    -0.74400
O121        O  0.43003782  0.38655251  0.04899790    -0.74400
O122        O  0.48150702  0.38383838  0.12087667    -0.74500
Ni123      Ni  0.42965251  0.33338883  0.08475374     1.25400
Ni124      Ni  0.45672119  0.38695336  0.08507006     1.25400
C125        C  0.47842008  0.35874359  0.13135532     0.87800
C126        C  0.40791458  0.36164684  0.03854335     0.87700
C127        C  0.47999748  0.36120553  0.03880386     0.87800
C128        C  0.40622534  0.35908188  0.13076400     0.87900
O129        O  0.48180271  0.12565548  0.11801015    -0.74400
O130        O  0.42901050  0.06952578  0.04808790    -0.74400
O131        O  0.48251258  0.12284690  0.04682392    -0.74500
O132        O  0.42842761  0.07231824  0.11964777    -0.74500
O133        O  0.40325557  0.09695312  0.11841961    -0.74400
O134        O  0.45763487  0.14779646  0.04585322    -0.74400
O135        O  0.40430688  0.09463107  0.04688673    -0.74400
O136        O  0.45677007  0.15044329  0.11710435    -0.74500
Ni137      Ni  0.45627997  0.09666255  0.08335477     1.25400
Ni138      Ni  0.42958334  0.12331704  0.08188905     1.25400
C139        C  0.47914170  0.14813067  0.12733195     0.87800
C140        C  0.40704434  0.07228827  0.03719196     0.87700
C141        C  0.47984651  0.14488500  0.03603081     0.87800
C142        C  0.40622051  0.07517079  0.12963121     0.87900
C143        C  0.22092088  0.21988553  0.99906458     0.80300
N144        N  0.19570123  0.21784937  0.48334781    -0.78000
C145        C  0.16915344  0.19177822  0.48317258     0.82700
N146        N  0.16764246  0.16706791  0.99938147    -0.78000
C147        C  0.19244341  0.16886828  0.01503400     0.82800
N148        N  0.21873218  0.19520956  0.01454498    -0.79700
C149        C  0.33234871  0.33178164  0.50086436     0.80300
N150        N  0.35716486  0.33454562  0.01691559    -0.78000
C151        C  0.38352436  0.36078495  0.01728784     0.82700
N152        N  0.38525416  0.38498567  0.50135936    -0.78000
C153        C  0.36048464  0.38286816  0.48517543     0.82800
N154        N  0.33442653  0.35636107  0.48529405    -0.79700
C155        C  0.49747541  0.35723285  0.33518816     0.80300
N156        N  0.99969329  0.33478982  0.31994126    -0.78000
C157        C  0.02612436  0.33525516  0.31887112     0.82700
N158        N  0.05103619  0.35875208  0.33389548    -0.78000
C159        C  0.04884845  0.38154158  0.34949454     0.82800
N160        N  0.02220302  0.38059170  0.34967795    -0.79700
C161        C  0.38570950  0.35718917  0.33593299     0.80300
N162        N  0.36117153  0.33513948  0.31971302    -0.78000
C163        C  0.33528802  0.33569041  0.31825588     0.82700
N164        N  0.33370755  0.35879347  0.33389163    -0.78000
C165        C  0.35850343  0.38114133  0.35052169     0.82800
N166        N  0.38418947  0.38012033  0.35110258    -0.79700
O167        O  0.38314941  0.42726996  0.38155269    -0.74400
O168        O  0.38578548  0.48250260  0.45214797    -0.74400
O169        O  0.38607472  0.42934347  0.45310962    -0.74500
O170        O  0.38317319  0.48040976  0.38056360    -0.74500
O171        O  0.33320524  0.45550238  0.38130504    -0.74400
O172        O  0.33610168  0.40407258  0.45342666    -0.74400
O173        O  0.33581349  0.45700781  0.45281442    -0.74400
O174        O  0.33317116  0.40225346  0.38186908    -0.74500
Ni175      Ni  0.38632801  0.45578562  0.41668101     1.25400
Ni176      Ni  0.33281030  0.42881172  0.41752302     1.25400
C177        C  0.35800219  0.40501958  0.37141322     0.87800
C178        C  0.36084315  0.47946348  0.46274269     0.87700
C179        C  0.36123718  0.40722238  0.46379736     0.87800
C180        C  0.35808881  0.47745681  0.37038380     0.87900
C181        C  0.19265323  0.05386068  0.33251572     0.80300
N182        N  0.21553168  0.05206639  0.31778829    -0.78000
C183        C  0.21553950  0.02584327  0.31754631     0.82700
N184        N  0.19207017  0.50054571  0.33370817    -0.78000
C185        C  0.16893148  0.50242804  0.34873144     0.82800
N186        N  0.16961412  0.02927745  0.34758456    -0.79700
C187        C  0.19396490  0.16545758  0.33501780     0.80300
N188        N  0.17078355  0.16682727  0.34957348    -0.78000
C189        C  0.17006526  0.19267456  0.34915188     0.82700
N190        N  0.19280661  0.21758155  0.33311362    -0.78000
C191        C  0.21612679  0.21607017  0.31800990     0.82800
N192        N  0.21656551  0.19006818  0.31946816    -0.79700
O193        O  0.14890326  0.21819316  0.37981006    -0.74400
O194        O  0.09469327  0.21615902  0.45113225    -0.74400
O195        O  0.14773438  0.21603965  0.45133762    -0.74500
O196        O  0.09563511  0.21791580  0.37941950    -0.74500
O197        O  0.07079924  0.16790930  0.37953038    -0.74400
O198        O  0.12250918  0.16603207  0.45177134    -0.74400
O199        O  0.06933458  0.16615201  0.45127742    -0.74400
O200        O  0.12396742  0.16817465  0.38023759    -0.74500
Ni201      Ni  0.12260760  0.21884689  0.41556038     1.25400
Ni202      Ni  0.09573433  0.16528678  0.41557840     1.25400
C203        C  0.14615126  0.19327070  0.36977404     0.87800
C204        C  0.07246960  0.19118326  0.46171408     0.87700
C205        C  0.14471550  0.19098439  0.46196789     0.87800
C206        C  0.07375495  0.19287714  0.36877294     0.87900
O207        O  0.06887644  0.42903461  0.45234698    -0.74400
O208        O  0.12327560  0.48094519  0.38052634    -0.74400
O209        O  0.07018346  0.42757695  0.38073719    -0.74500
O210        O  0.12241135  0.48241974  0.45224615    -0.74500
O211        O  0.14700663  0.45720520  0.45265408    -0.74400
O212        O  0.09531345  0.40288312  0.38094673    -0.74400
O213        O  0.14842143  0.45626770  0.38103776    -0.74400
O214        O  0.09375156  0.40408865  0.45245824    -0.74500
Ni215      Ni  0.09530179  0.45590132  0.41630625     1.25400
Ni216      Ni  0.12200603  0.42924815  0.41693140     1.25400
C217        C  0.07165826  0.40698761  0.46286151     0.87800
C218        C  0.14541784  0.47812056  0.37022632     0.87700
C219        C  0.07322200  0.40551703  0.37043090     0.87800
C220        C  0.14426798  0.47938285  0.46301669     0.87900
O221        O  0.23610972  0.26223321  0.28559708    -0.73500
O222        O  0.29042951  0.31494022  0.21410786    -0.74400
O223        O  0.23721423  0.26163330  0.21392999    -0.74500
O224        O  0.28926080  0.31566586  0.28574928    -0.74500
O225        O  0.31412888  0.29070983  0.28527525    -0.74400
O226        O  0.26201586  0.23661353  0.21357846    -0.74400
O227        O  0.31534628  0.29003551  0.21368634    -0.74400
O228        O  0.26123970  0.23754066  0.28521127    -0.74500
Ni229      Ni  0.26234996  0.28949788  0.24968781     1.25400
Ni230      Ni  0.28906292  0.26284388  0.24953067     1.25400
C231        C  0.23922227  0.24035027  0.29605056     0.87800
C232        C  0.31255989  0.31216743  0.20354422     0.87700
C233        C  0.24004062  0.23956935  0.20324690     0.87800
C234        C  0.31116360  0.31264286  0.29617624     0.87900
C235        C  0.16704138  0.08331892  0.32492458     0.23600
C236        C  0.19314865  0.08245894  0.33282344    -0.24500
C237        C  0.21967232  0.10908321  0.34137906     0.18600
C238        C  0.22001224  0.13626000  0.34222868     0.23600
C239        C  0.19380938  0.13704116  0.33457503    -0.24400
C240        C  0.16735693  0.11044158  0.32588256     0.18500
F241        F  0.14206686  0.11088737  0.31718125    -0.14400
F242        F  0.14149654  0.05805421  0.31518788    -0.16700
F243        F  0.24563249  0.16161542  0.35157960    -0.16700
F244        F  0.24496473  0.10861410  0.35001236    -0.14400
C245        C  0.46390964  0.37461761  0.36028326     0.23600
C246        C  0.46857579  0.35656295  0.33597255    -0.24500
C247        C  0.44539259  0.33807538  0.31230342     0.18600
C248        C  0.41840355  0.33801863  0.31254581     0.23600
C249        C  0.41393458  0.35647960  0.33645728    -0.24400
C250        C  0.43692532  0.37454291  0.36055650     0.18500
F251        F  0.43332596  0.39195544  0.38491319    -0.14400
F252        F  0.48525983  0.39216449  0.38434423    -0.16700
F253        F  0.39700999  0.32032254  0.28860429    -0.16700
F254        F  0.44893663  0.32051346  0.28811232    -0.14400
C255        C  0.24937742  0.27575030  0.49631548     0.23600
C256        C  0.24954724  0.24860422  0.99952949    -0.24500
C257        C  0.27693201  0.24911396  0.00302976     0.18600
C258        C  0.30390885  0.27631291  0.00373875     0.23600
C259        C  0.30372489  0.30309979  0.50044891    -0.24400
C260        C  0.27645203  0.30279984  0.49695535     0.18500
F261        F  0.27578003  0.32872348  0.49507351    -0.14400
F262        F  0.22356783  0.27655337  0.49389018    -0.16700
F263        F  0.32986411  0.27578885  0.00626133    -0.16700
F264        F  0.27780073  0.22329411  0.00491487    -0.14400
C265        C  0.38594268  0.44375979  0.16221850     0.23600
C266        C  0.35902287  0.41625944  0.16601428    -0.24500
C267        C  0.33191810  0.41632331  0.16953571     0.18600
C268        C  0.33175733  0.44323939  0.16942007     0.23600
C269        C  0.35868515  0.47071936  0.16579241    -0.24400
C270        C  0.38576753  0.47066665  0.16206116     0.18500
F271        F  0.41234116  0.49670126  0.15922448    -0.14400
F272        F  0.41268611  0.44484474  0.15961769    -0.16700
F273        F  0.30504739  0.44222424  0.17206575    -0.16700
F274        F  0.30532925  0.39031061  0.17235970    -0.14400
C275        C  0.11989461  0.18690361  0.13077886     0.23600
C276        C  0.13760821  0.19560139  0.16181617    -0.24500
C277        C  0.12858753  0.20550819  0.19172621     0.18600
C278        C  0.10221664  0.20661209  0.19071642     0.23600
C279        C  0.08435177  0.19770424  0.15983194    -0.24400
C280        C  0.09343099  0.18798585  0.12977597     0.18500
F281        F  0.07704824  0.18019369  0.09921857    -0.14400
F282        F  0.12858974  0.17810222  0.10115459    -0.16700
F283        F  0.09354277  0.21525058  0.22049954    -0.16700
F284        F  0.14473432  0.21309075  0.22245633    -0.14400
C285        C  0.50029923  0.24924694  0.50823958     0.23600
C286        C  0.02742782  0.24956273  0.00215554    -0.24500
C287        C  0.05398080  0.27702937  0.99636291     0.18600
C288        C  0.05358310  0.30384159  0.99614568     0.23600
C289        C  0.02627320  0.30344328  0.50153302    -0.24400
C290        C  0.49987000  0.27600481  0.50793230     0.18500
F291        F  0.47319427  0.27477003  0.51248674    -0.14400
F292        F  0.47399803  0.22330856  0.51340585    -0.16700
F293        F  0.07984339  0.32981783  0.99097978    -0.16700
F294        F  0.08059782  0.27819226  0.99157700    -0.14400
C295        C  0.27512511  0.05143817  0.00590660     0.23600
C296        C  0.24818660  0.02509083  0.50155008    -0.24500
C297        C  0.24823650  0.49772804  0.49877620     0.18600
C298        C  0.27537159  0.49795679  0.49792255     0.23600
C299        C  0.30262618  0.02476469  0.00134806    -0.24400
C300        C  0.30221222  0.05167563  0.00507605     0.18500
F301        F  0.32806169  0.07849813  0.00691435    -0.14400
F302        F  0.27588400  0.07803371  0.00868322    -0.16700
F303        F  0.27470018  0.47138383  0.49550966    -0.16700
F304        F  0.22232485  0.47094567  0.49716311    -0.14400
C305        C  0.44201795  0.08156431  0.32124555     0.23600
C306        C  0.41567942  0.08120505  0.33141330    -0.24500
C307        C  0.41679529  0.10809626  0.34063047     0.18600
C308        C  0.44398070  0.13505000  0.33984345     0.23600
C309        C  0.47039917  0.13538451  0.33011879    -0.24400
C310        C  0.46927965  0.10851456  0.32074970     0.18500
F311        F  0.49441433  0.10853103  0.31011554    -0.14400
F312        F  0.44114800  0.05596512  0.31076000    -0.16700
F313        F  0.44468472  0.16069730  0.34973559    -0.16700
F314        F  0.39172383  0.10810538  0.35151730    -0.14400
C315        C  0.10191254  0.42412470  0.19835601     0.23600
C316        C  0.08201848  0.41658841  0.16944859    -0.24500
C317        C  0.08970118  0.43648371  0.14047919     0.18600
C318        C  0.11685213  0.46343772  0.14036958     0.23600
C319        C  0.13674725  0.47099238  0.16927049    -0.24400
C320        C  0.12907192  0.45110837  0.19826017     0.18500
F321        F  0.14746589  0.45811704  0.22698587    -0.14400
F322        F  0.09474533  0.40576653  0.22719182    -0.16700
F323        F  0.12405741  0.48169948  0.11143565    -0.16700
F324        F  0.07137226  0.42946219  0.11169031    -0.14400
C325        C  0.05352850  0.38752888  0.66882980     0.80300
N326        N  0.05161757  0.36300182  0.68434571    -0.78000
C327        C  0.02551297  0.33649291  0.68452470     0.82700
N328        N  0.50071618  0.33449784  0.66877986    -0.78000
C329        C  0.50260892  0.35935327  0.65307554     0.82800
N330        N  0.02900626  0.38547252  0.65322503    -0.79700
C331        C  0.16510178  0.99903831  0.66767991     0.80300
N332        N  0.18973223  0.00102541  0.68287698    -0.78000
C333        C  0.21618785  0.02716894  0.68287583     0.82700
N334        N  0.21812298  0.05201189  0.66703473    -0.78000
C335        C  0.19314829  0.04996095  0.65149424     0.82800
N336        N  0.16698875  0.02353377  0.65212491    -0.79700
C337        C  0.99879750  0.16394687  0.83187348     0.80300
N338        N  0.02330105  0.16588057  0.84747059    -0.78000
C339        C  0.04958110  0.19226956  0.84846399     0.82700
N340        N  0.05149670  0.21718800  0.83286115    -0.78000
C341        C  0.02671482  0.21511476  0.81679320     0.82800
N342        N  0.00064364  0.18859662  0.81682595    -0.79700
C343        C  0.38686761  0.05257231  0.83175714     0.80300
N344        N  0.38486749  0.02797779  0.84718905    -0.78000
C345        C  0.35853277  0.50138096  0.84786562     0.82700
N346        N  0.33347965  0.49967516  0.83296386    -0.78000
C347        C  0.33558455  0.02494171  0.81737211     0.82800
N348        N  0.36219253  0.05093368  0.81715206    -0.79700
O349        O  0.28894132  0.49931460  0.78557297    -0.74400
O350        O  0.23774421  0.00278369  0.71377269    -0.74400
O351        O  0.29071980  0.00266353  0.71409134    -0.74500
O352        O  0.23579789  0.49952255  0.78533976    -0.74500
O353        O  0.26127529  0.04974155  0.78599249    -0.74400
O354        O  0.31593636  0.05267803  0.71466941    -0.74400
O355        O  0.26278811  0.05279119  0.71452948    -0.74400
O356        O  0.31422914  0.04950883  0.78623178    -0.74500
Ni357      Ni  0.26243355  0.99939431  0.74951979     1.25400
Ni358      Ni  0.28946228  0.05295140  0.75053406     1.25400
C359        C  0.31112185  0.02431004  0.79637459     0.87800
C360        C  0.24071706  0.02794807  0.70378591     0.87700
C361        C  0.31300210  0.02782037  0.70398810     0.87800
C362        C  0.23883937  0.02463662  0.79588042     0.87900
O363        O  0.05002111  0.26198440  0.71397632    -0.74400
O364        O  0.05210018  0.31511194  0.78692539    -0.74400
O365        O  0.05239140  0.26201252  0.78564322    -0.74500
O366        O  0.04981542  0.31486871  0.71545674    -0.74500
O367        O  0.49993265  0.28970019  0.71569498    -0.74400
O368        O  0.00241527  0.23668217  0.78564318    -0.74400
O369        O  0.00211915  0.28957988  0.78704131    -0.74400
O370        O  0.00004172  0.23655134  0.71401735    -0.74500
Ni371      Ni  0.05286215  0.28937949  0.75036990     1.25400
Ni372      Ni  0.99933036  0.26218632  0.75072441     1.25400
C373        C  0.02502539  0.23993481  0.70314424     0.87800
C374        C  0.02709144  0.31185319  0.79751493     0.87700
C375        C  0.02750685  0.23969286  0.79590013     0.87800
C376        C  0.02472683  0.31190946  0.70531245     0.87900
C377        C  0.33174779  0.02575066  0.49982087     0.80300
N378        N  0.33353550  0.00278454  0.98481150    -0.78000
C379        C  0.35983326  0.00290384  0.98404116     0.82700
N380        N  0.38477809  0.02607944  0.49990429    -0.78000
C381        C  0.38269402  0.04875298  0.51597198     0.82800
N382        N  0.35626573  0.04834681  0.51554914    -0.79700
C383        C  0.21915640  0.02431271  0.00275225     0.80300
N384        N  0.19476689  0.00226896  0.98614725    -0.78000
C385        C  0.16869733  0.00259692  0.98479489     0.82700
N386        N  0.16690954  0.02548765  0.00078947    -0.78000
C387        C  0.19178416  0.04824979  0.51711863     0.82800
N388        N  0.21771597  0.04766604  0.51731753    -0.79700
C389        C  0.02724643  0.22064002  0.50109888     0.80300
N390        N  0.05008076  0.21908090  0.98572790    -0.78000
C391        C  0.04986877  0.19270461  0.98447524     0.82700
N392        N  0.02624214  0.16725823  0.49917875    -0.78000
C393        C  0.00374798  0.16934280  0.51567307     0.82800
N394        N  0.00457741  0.19592647  0.51632558    -0.79700
C395        C  0.02618056  0.33226359  0.00131218     0.80300
N396        N  0.00342862  0.33377076  0.51723959    -0.78000
C397        C  0.00301574  0.35981707  0.51737519     0.82700
N398        N  0.02579989  0.38497325  0.00051044    -0.78000
C399        C  0.04843292  0.38297512  0.98420425     0.82800
N400        N  0.04832263  0.35670669  0.98492838    -0.79700
C401        C  0.05463826  0.19548191  0.66276975     0.80300
N402        N  0.05245427  0.21758291  0.67914336    -0.78000
C403        C  0.02602025  0.21706054  0.68073244     0.82700
N404        N  0.50131004  0.19404181  0.66534321    -0.78000
C405        C  0.50352640  0.17168981  0.64856525     0.82800
N406        N  0.03003353  0.17254060  0.64769584    -0.79700
C407        C  0.16497424  0.19354328  0.66499431     0.80300
N408        N  0.16670552  0.17083603  0.64951113    -0.78000
C409        C  0.19261834  0.17020074  0.64989511     0.82700
N410        N  0.21735647  0.19277503  0.66633608    -0.78000
C411        C  0.21555815  0.21569878  0.68213363     0.82800
N412        N  0.18941903  0.21580549  0.68115635    -0.79700
O413        O  0.16873315  0.07114626  0.61978273    -0.74400
O414        O  0.16590986  0.12238222  0.54735107    -0.74400
O415        O  0.16612331  0.06920087  0.54824478    -0.74500
O416        O  0.16840674  0.12410230  0.61889968    -0.74500
O417        O  0.21838421  0.14946953  0.61856506    -0.74400
O418        O  0.21610004  0.09442691  0.54805039    -0.74400
O419        O  0.21588249  0.14745121  0.54699226    -0.74400
O420        O  0.21871077  0.09640657  0.61952798    -0.74500
Ni421      Ni  0.16551675  0.09580486  0.58372815     1.25400
Ni422      Ni  0.21903941  0.12284836  0.58312269     1.25400
C423        C  0.19386110  0.07428647  0.63016118     0.87800
C424        C  0.19080535  0.14441336  0.53661087     0.87700
C425        C  0.19104036  0.07205661  0.53793988     0.87800
C426        C  0.19343924  0.14649038  0.62899562     0.87900
C427        C  0.35905151  0.38744263  0.66663942     0.80300
N428        N  0.38190483  0.38560985  0.65175206    -0.78000
C429        C  0.38220935  0.35952420  0.65182921     0.82700
N430        N  0.35913520  0.33463336  0.66745988    -0.78000
C431        C  0.33603899  0.33643869  0.68271704     0.82800
N432        N  0.33624826  0.36278249  0.68198796    -0.79700
C433        C  0.35898001  0.49917600  0.66582332     0.80300
N434        N  0.38224916  0.02397609  0.65163691    -0.78000
C435        C  0.38241524  0.05029078  0.65114932     0.82700
N436        N  0.35949699  0.05210801  0.66692190    -0.78000
C437        C  0.33667053  0.02717942  0.68285234     0.82800
N438        N  0.33701811  0.00112403  0.68261659    -0.79700
O439        O  0.45615137  0.33346326  0.62124935    -0.74400
O440        O  0.40446379  0.33591397  0.54934808    -0.74400
O441        O  0.45742631  0.33568557  0.54963775    -0.74500
O442        O  0.40303252  0.33367432  0.62090327    -0.74500
O443        O  0.42833626  0.38368809  0.62080654    -0.74400
O444        O  0.48270532  0.38569518  0.54947863    -0.74400
O445        O  0.42961620  0.38592437  0.54925323    -0.74400
O446        O  0.48129064  0.38347534  0.62111709    -0.74500
Ni447      Ni  0.42937415  0.33290746  0.58515604     1.25400
Ni448      Ni  0.45639899  0.38646871  0.58531945     1.25400
C449        C  0.47825166  0.35841289  0.63166498     0.87800
C450        C  0.40750887  0.36099254  0.53881383     0.87700
C451        C  0.47964994  0.36070574  0.53907717     0.87800
C452        C  0.40598630  0.35866219  0.63111430     0.87900
O453        O  0.48144944  0.12506925  0.61876459    -0.74400
O454        O  0.42897097  0.06949436  0.54822446    -0.74400
O455        O  0.48249351  0.12271016  0.54745773    -0.74500
O456        O  0.42817091  0.07183376  0.61978241    -0.74500
O457        O  0.40305536  0.09653620  0.61875276    -0.74400
O458        O  0.45769318  0.14774130  0.54668631    -0.74400
O459        O  0.40434177  0.09467839  0.54721201    -0.74400
O460        O  0.45651155  0.14995443  0.61802607    -0.74500
Ni461      Ni  0.45612218  0.09636127  0.58375798     1.25400
Ni462      Ni  0.42950095  0.12310119  0.58249543     1.25400
C463        C  0.47871630  0.14743290  0.62843135     0.87800
C464        C  0.40708559  0.07238765  0.53730905     0.87700
C465        C  0.47984078  0.14476702  0.53673443     0.87800
C466        C  0.40598470  0.07469127  0.62979035     0.87900
C467        C  0.22020755  0.21973602  0.49888557     0.80300
N468        N  0.19638722  0.21804491  0.98368410    -0.78000
C469        C  0.16983638  0.19199960  0.98350397     0.82700
N470        N  0.16694941  0.16689091  0.49924519    -0.78000
C471        C  0.19173808  0.16878838  0.51509791     0.82800
N472        N  0.21798626  0.19512695  0.51455836    -0.79700
C473        C  0.33261003  0.33238266  0.00127568     0.80300
N474        N  0.35681228  0.33386373  0.51671970    -0.78000
C475        C  0.38318197  0.36011438  0.51733608     0.82700
N476        N  0.38551271  0.38559626  0.00126818    -0.78000
C477        C  0.36064494  0.38341304  0.98528627     0.82800
N478        N  0.33457062  0.35689848  0.98565947    -0.79700
C479        C  0.49747143  0.35725488  0.83523511     0.80300
N480        N  0.99958719  0.33472677  0.81988599    -0.78000
C481        C  0.02602476  0.33520173  0.81886258     0.82700
N482        N  0.05092756  0.35870464  0.83383284    -0.78000
C483        C  0.04873216  0.38149469  0.84937094     0.82800
N484        N  0.02208996  0.38055499  0.84954827    -0.79700
C485        C  0.38579028  0.35731940  0.83550474     0.80300
N486        N  0.36123110  0.33514641  0.81946445    -0.78000
C487        C  0.33524593  0.33551558  0.81826900     0.82700
N488        N  0.33358667  0.35855025  0.83396162    -0.78000
C489        C  0.35840077  0.38101490  0.85040793     0.82800
N490        N  0.38419062  0.38018215  0.85074920    -0.79700
O491        O  0.38300591  0.42721064  0.88122341    -0.74400
O492        O  0.38587325  0.48278913  0.95142969    -0.74400
O493        O  0.38614086  0.42966227  0.95276428    -0.74500
O494        O  0.38286243  0.48022264  0.87979541    -0.74500
O495        O  0.33289828  0.45524823  0.88072122    -0.74400
O496        O  0.33616826  0.40440136  0.95335757    -0.74400
O497        O  0.33590376  0.45730475  0.95227477    -0.74400
O498        O  0.33302853  0.40208714  0.88180281    -0.74500
Ni499      Ni  0.38624988  0.45587970  0.91612501     1.25400
Ni500      Ni  0.33273538  0.42886457  0.91721643     1.25400
C501        C  0.35785704  0.40488043  0.87126544     0.87800
C502        C  0.36097145  0.47976255  0.96213959     0.87700
C503        C  0.36133505  0.40762489  0.96368991     0.87800
C504        C  0.35772446  0.47714100  0.86958344     0.87900
C505        C  0.19218995  0.05345746  0.83170791     0.80300
N506        N  0.21505504  0.05168249  0.81687941    -0.78000
C507        C  0.21508635  0.02546089  0.81663333     0.82700
N508        N  0.19179434  0.50023877  0.83235512    -0.78000
C509        C  0.16868985  0.50211724  0.84752987     0.82800
N510        N  0.16922749  0.02889076  0.84686329    -0.79700
C511        C  0.19374130  0.16515967  0.83546557     0.80300
N512        N  0.17066861  0.16667942  0.85012966    -0.78000
C513        C  0.17013780  0.19263505  0.84979911     0.82700
N514        N  0.19294079  0.21747275  0.83373927    -0.78000
C515        C  0.21613488  0.21580617  0.81851980     0.82800
N516        N  0.21640020  0.18971538  0.81988972    -0.79700
O517        O  0.14923040  0.21840407  0.88052814    -0.74400
O518        O  0.09541913  0.21668398  0.95226932    -0.74400
O519        O  0.14837883  0.21637475  0.95203253    -0.74500
O520        O  0.09598911  0.21837653  0.88057284    -0.74500
O521        O  0.07101563  0.16837301  0.88081905    -0.74400
O522        O  0.12305067  0.16636442  0.95248050    -0.74400
O523        O  0.06999878  0.16667365  0.95248366    -0.74400
O524        O  0.12410075  0.16838670  0.88099926    -0.74500
Ni525      Ni  0.12313716  0.21924035  0.91647817     1.25400
Ni526      Ni  0.09612673  0.16567968  0.91657093     1.25400
C527        C  0.14633940  0.19341569  0.87048990     0.87800
C528        C  0.07317899  0.19172453  0.96287748     0.87700
C529        C  0.14534656  0.19129335  0.96256107     0.87800
C530        C  0.07393770  0.19335130  0.87015401     0.87900
O531        O  0.06905331  0.42928082  0.95194398    -0.74400
O532        O  0.12325473  0.48086618  0.87975312    -0.74400
O533        O  0.07014959  0.42759355  0.88036587    -0.74500
O534        O  0.12255963  0.48264441  0.95151279    -0.74500
O535        O  0.14716002  0.45743193  0.95191250    -0.74400
O536        O  0.09523254  0.40284689  0.88063750    -0.74400
O537        O  0.14836239  0.45615122  0.88027268    -0.74400
O538        O  0.09393919  0.40434438  0.95212529    -0.74500
Ni539      Ni  0.09537525  0.45601026  0.91573303     1.25400
Ni540      Ni  0.12205977  0.42933305  0.91639900     1.25400
C541        C  0.07187678  0.40727827  0.96255617     0.87800
C542        C  0.14531701  0.47794349  0.86933029     0.87700
C543        C  0.07313707  0.40548829  0.87016402     0.87800
C544        C  0.14442016  0.47961510  0.96225437     0.87900
O545        O  0.23606089  0.26187417  0.78600017    -0.73500
O546        O  0.29018219  0.31456939  0.71438574    -0.74400
O547        O  0.23705000  0.26115032  0.71432884    -0.74500
O548        O  0.28912416  0.31533382  0.78600041    -0.74500
O549        O  0.31405229  0.29043489  0.78553388    -0.74400
O550        O  0.26194962  0.23622821  0.71394136    -0.74400
O551        O  0.31518746  0.28975315  0.71396650    -0.74400
O552        O  0.26121330  0.23720329  0.78559000    -0.74500
Ni553      Ni  0.26219392  0.28910311  0.75001857     1.25400
Ni554      Ni  0.28898532  0.26252615  0.74984815     1.25400
C555        C  0.23921077  0.24002363  0.79647948     0.87800
C556        C  0.31234401  0.31185601  0.70382442     0.87700
C557        C  0.23991201  0.23909661  0.70367289     0.87800
C558        C  0.31107166  0.31236918  0.79637773     0.87900
C559        C  0.16662901  0.08301966  0.82458124     0.23600
C560        C  0.19271018  0.08206178  0.83234315    -0.24500
C561        C  0.21918618  0.10856038  0.84134011     0.18600
C562        C  0.21956096  0.13574413  0.84257682     0.23600
C563        C  0.19343316  0.13666165  0.83489408    -0.24400
C564        C  0.16698127  0.11016031  0.82591049     0.18500
F565        F  0.14174756  0.11073303  0.81726226    -0.14400
F566        F  0.14107325  0.05783824  0.81466548    -0.16700
F567        F  0.24514772  0.16097590  0.85230904    -0.16700
F568        F  0.24438184  0.10793913  0.85007133    -0.14400
C569        C  0.46377455  0.37442167  0.86037630     0.23600
C570        C  0.46859497  0.35661004  0.83586220    -0.24500
C571        C  0.44563072  0.33846020  0.81177295     0.18600
C572        C  0.41869244  0.33851040  0.81181149     0.23600
C573        C  0.41405649  0.35670265  0.83597741    -0.24400
C574        C  0.43684649  0.37445609  0.86044545     0.18500
F575        F  0.43307223  0.39161925  0.88500273    -0.14400
F576        F  0.48490065  0.39157346  0.88486297    -0.16700
F577        F  0.39751667  0.32119642  0.78744955    -0.16700
F578        F  0.44935862  0.32114292  0.78738854    -0.14400
C579        C  0.24977824  0.27591010  0.99679586     0.23600
C580        C  0.24892329  0.24835129  0.49916767    -0.24500
C581        C  0.27620178  0.24863643  0.50268723     0.18600
C582        C  0.30329871  0.27571113  0.50333500     0.23600
C583        C  0.30409970  0.30359760  0.00092436    -0.24400
C584        C  0.27672671  0.30307518  0.99749558     0.18500
F585        F  0.27583577  0.32888666  0.99569106    -0.14400
F586        F  0.22386510  0.27651331  0.99436991    -0.16700
F587        F  0.32913376  0.27496375  0.50590828    -0.16700
F588        F  0.27684356  0.22270133  0.50469969    -0.14400
C589        C  0.38610079  0.44348911  0.66350538     0.23600
C590        C  0.35900838  0.41601523  0.66616583    -0.24500
C591        C  0.33188338  0.41615659  0.66840743     0.18600
C592        C  0.33186348  0.44314940  0.66816256     0.23600
C593        C  0.35896159  0.47060223  0.66568315    -0.24400
C594        C  0.38607171  0.47047212  0.66325563     0.18500
F595        F  0.41276272  0.49649295  0.66164879    -0.14400
F596        F  0.41282889  0.44443922  0.66212284    -0.16700
F597        F  0.30516367  0.44226543  0.66949952    -0.16700
F598        F  0.30518385  0.39015208  0.66999802    -0.14400
C599        C  0.11710149  0.18194493  0.63510127     0.23600
C600        C  0.13683990  0.19419607  0.66419149    -0.24500
C601        C  0.12961048  0.20739451  0.69241822     0.18600
C602        C  0.10306829  0.20818867  0.69167228     0.23600
C603        C  0.08320017  0.19570321  0.66274667    -0.24400
C604        C  0.09052575  0.18274320  0.63435687     0.18500
F605        F  0.07231883  0.17145784  0.60544925    -0.14400
F606        F  0.12384082  0.16986575  0.60690410    -0.16700
F607        F  0.09638430  0.22028133  0.71991353    -0.16700
F608        F  0.14774784  0.21871463  0.72137727    -0.14400
C609        C  0.50071813  0.24970262  0.00854026     0.23600
C610        C  0.02709710  0.24918905  0.50168837    -0.24500
C611        C  0.05367770  0.27666536  0.49617268     0.18600
C612        C  0.05326715  0.30346743  0.49601823     0.23600
C613        C  0.02663659  0.30386509  0.00185395    -0.24400
C614        C  0.50033801  0.27649315  0.00835021     0.18500
F615        F  0.47375398  0.27531541  0.01355629    -0.14400
F616        F  0.47446103  0.22383578  0.01422087    -0.16700
F617        F  0.07955139  0.32947549  0.49113276    -0.16700
F618        F  0.08032240  0.27783041  0.49166800    -0.14400
C619        C  0.27558369  0.05230016  0.50355447     0.23600
C620        C  0.24775598  0.02430091  0.00282944    -0.24500
C621        C  0.24842131  0.49801546  0.99742084     0.18600
C622        C  0.27553358  0.49821904  0.99675071     0.23600
C623        C  0.30301901  0.02549391  0.50013107    -0.24400
C624        C  0.30267130  0.05250445  0.50277684     0.18500
F625        F  0.32857348  0.07933079  0.50365248    -0.14400
F626        F  0.27632475  0.07893560  0.50524941    -0.16700
F627        F  0.27484691  0.47162545  0.99458286    -0.16700
F628        F  0.22248892  0.47123738  0.99597241    -0.14400
C629        C  0.44243311  0.08106660  0.82503180     0.23600
C630        C  0.41552957  0.08093348  0.83116817    -0.24500
C631        C  0.41621848  0.10815644  0.83687472     0.18600
C632        C  0.44340526  0.13512372  0.83652103     0.23600
C633        C  0.47036165  0.13526354  0.83079980    -0.24400
C634        C  0.46968696  0.10805187  0.82496678     0.18500
F635        F  0.49530719  0.10767626  0.81813292    -0.14400
F636        F  0.44224384  0.05516198  0.81807706    -0.16700
F637        F  0.44345121  0.16103018  0.84294098    -0.16700
F638        F  0.39066062  0.10857802  0.84401339    -0.14400
C639        C  0.10226914  0.42372638  0.69715701     0.23600
C640        C  0.08206271  0.41609490  0.66857130    -0.24500
C641        C  0.08940502  0.43599685  0.63964005     0.18600
C642        C  0.11649287  0.46304382  0.63927918     0.23600
C643        C  0.13670023  0.47066822  0.66785459    -0.24400
C644        C  0.12935327  0.45079478  0.69680866     0.18500
F645        F  0.14798025  0.45792648  0.72532028    -0.14400
F646        F  0.09547424  0.40540310  0.72596782    -0.16700
F647        F  0.12329502  0.48135234  0.61044894    -0.16700
F648        F  0.07077511  0.42891836  0.61114092    -0.14400
C649        C  0.05385389  0.88801708  0.16867570     0.80300
N650        N  0.05196340  0.86351766  0.18421540    -0.78000
C651        C  0.02593268  0.83696611  0.18422750     0.82700
N652        N  0.50115416  0.83484780  0.16793543    -0.78000
C653        C  0.50312497  0.85965483  0.15199299     0.82800
N654        N  0.02938543  0.88588731  0.15280871    -0.79700
C655        C  0.16531010  0.49946233  0.16911700     0.80300
N656        N  0.18980544  0.50144108  0.18466637    -0.78000
C657        C  0.21631227  0.52752310  0.18460463     0.82700
N658        N  0.21844807  0.55230708  0.16830573    -0.78000
C659        C  0.19357497  0.55023397  0.15241833     0.82800
N660        N  0.16737361  0.52388193  0.15316940    -0.79700
C661        C  0.99895276  0.66360793  0.32979496     0.80300
N662        N  0.02342517  0.66541031  0.34531122    -0.78000
C663        C  0.04963369  0.69184103  0.34674403     0.82700
N664        N  0.05152102  0.71690034  0.33161997    -0.78000
C665        C  0.02678498  0.71496315  0.31562380     0.82800
N666        N  0.00073184  0.68841194  0.31528428    -0.79700
C667        C  0.38715201  0.55265315  0.33241101     0.80300
N668        N  0.38535788  0.52802342  0.34749142    -0.78000
C669        C  0.35886044  0.00210091  0.34868102     0.82700
N670        N  0.33382009  0.00036022  0.33370069    -0.78000
C671        C  0.33582208  0.52500258  0.31847942     0.82800
N672        N  0.36236604  0.55103728  0.31824500    -0.79700
O673        O  0.28935789  0.99992171  0.28620228    -0.74400
O674        O  0.23770861  0.50301336  0.21555958    -0.74400
O675        O  0.29060388  0.50280642  0.21534216    -0.74500
O676        O  0.23625966  0.00014989  0.28599060    -0.74500
O677        O  0.26151183  0.54977987  0.28783472    -0.74400
O678        O  0.31590022  0.55281836  0.21607971    -0.74400
O679        O  0.26284630  0.55302259  0.21637914    -0.74400
O680        O  0.31438343  0.54954984  0.28767817    -0.74500
Ni681      Ni  0.26250538  0.49949947  0.25104818     1.25400
Ni682      Ni  0.28957237  0.55306144  0.25218954     1.25400
C683        C  0.31130133  0.52434219  0.29768571     0.87800
C684        C  0.24074818  0.52821869  0.20561307     0.87700
C685        C  0.31280329  0.52796624  0.20509615     0.87800
C686        C  0.23909949  0.52465486  0.29770674     0.87900
O687        O  0.05042056  0.76248332  0.21353619    -0.74400
O688        O  0.05247513  0.81544088  0.28682420    -0.74400
O689        O  0.05260366  0.76219481  0.28518279    -0.74500
O690        O  0.05023817  0.81540064  0.21530612    -0.74500
O691        O  0.50025567  0.79024560  0.21525917    -0.74400
O692        O  0.00262738  0.73697013  0.28511857    -0.74400
O693        O  0.00250001  0.78998013  0.28689301    -0.74400
O694        O  0.00044100  0.73717313  0.21355968    -0.74500
Ni695      Ni  0.05322181  0.78977679  0.25009884     1.25400
Ni696      Ni  0.99969281  0.76267524  0.25040251     1.25400
C697        C  0.02539886  0.74049925  0.20265847     0.87800
C698        C  0.02748017  0.81220135  0.29746220     0.87700
C699        C  0.02767329  0.73981201  0.29523497     0.87800
C700        C  0.02515736  0.81244807  0.20511604     0.87900
C701        C  0.33163517  0.52573336  0.99913828     0.80300
N702        N  0.33361128  0.50302772  0.48423252    -0.78000
C703        C  0.35988147  0.50307449  0.48371688     0.82700
N704        N  0.38472317  0.52618910  0.99943907    -0.78000
C705        C  0.38253033  0.54880278  0.01552179     0.82800
N706        N  0.35606957  0.54831850  0.01500147    -0.79700
C707        C  0.21925464  0.52469023  0.50217231     0.80300
N708        N  0.19474264  0.50242159  0.48600767    -0.78000
C709        C  0.16861963  0.50265366  0.48484497     0.82700
N710        N  0.16689745  0.52565835  0.50055824    -0.78000
C711        C  0.19176938  0.54805676  0.01690259     0.82800
N712        N  0.21768922  0.54747476  0.01681880    -0.79700
C713        C  0.02737034  0.72060702  0.00126420     0.80300
N714        N  0.04990738  0.71876474  0.48499028    -0.78000
C715        C  0.04954577  0.69231774  0.48350848     0.82700
N716        N  0.02630453  0.66718822  0.99987728    -0.78000
C717        C  0.00379032  0.66936269  0.01620939     0.82800
N718        N  0.00464472  0.69597307  0.01658496    -0.79700
C719        C  0.02634780  0.83211888  0.50144738     0.80300
N720        N  0.00373364  0.83380954  0.01662107    -0.78000
C721        C  0.00331940  0.85985596  0.01675856     0.82700
N722        N  0.02577215  0.88472895  0.50053388    -0.78000
C723        C  0.04846884  0.88280943  0.48423248     0.82800
N724        N  0.04844681  0.85658060  0.48501981    -0.79700
C725        C  0.05444597  0.69560373  0.16169785     0.80300
N726        N  0.05256362  0.71789652  0.17813535    -0.78000
C727        C  0.02620222  0.71756832  0.18012919     0.82700
N728        N  0.50101649  0.69448036  0.16491595    -0.78000
C729        C  0.50288852  0.67191301  0.14826443     0.82800
N730        N  0.02950910  0.67273972  0.14710299    -0.79700
C731        C  0.16546045  0.69378054  0.16408032     0.80300
N732        N  0.16734134  0.67103065  0.14894550    -0.78000
C733        C  0.19321444  0.67034000  0.14963741     0.82700
N734        N  0.21788921  0.69294364  0.16608682    -0.78000
C735        C  0.21602914  0.71591389  0.18162396     0.82800
N736        N  0.18989131  0.71604230  0.18032639    -0.79700
O737        O  0.16921726  0.57117640  0.12012955    -0.74400
O738        O  0.16632207  0.62225339  0.04751293    -0.74400
O739        O  0.16631536  0.56898739  0.04852192    -0.74500
O740        O  0.16897144  0.62411598  0.11903108    -0.74500
O741        O  0.21894955  0.64945367  0.11851084    -0.74400
O742        O  0.21628977  0.59407673  0.04817484    -0.74400
O743        O  0.21629140  0.64721451  0.04694504    -0.74400
O744        O  0.21919178  0.59636112  0.11974907    -0.74500
Ni745      Ni  0.16593557  0.59572420  0.08396499     1.25400
Ni746      Ni  0.21945487  0.62266952  0.08317357     1.25400
C747        C  0.19434846  0.57437344  0.13061359     0.87800
C748        C  0.19121571  0.64422910  0.03665356     0.87700
C749        C  0.19116262  0.57178848  0.03805009     0.87800
C750        C  0.19403133  0.64653120  0.12897406     0.87900
C751        C  0.35973347  0.88783836  0.16657285     0.80300
N752        N  0.38247922  0.88593720  0.15145142    -0.78000
C753        C  0.38264345  0.85977175  0.15124649     0.82700
N754        N  0.35953078  0.83486606  0.16683637    -0.78000
C755        C  0.33653314  0.83673292  0.18230510     0.82800
N756        N  0.33690253  0.86315312  0.18185089    -0.79700
C757        C  0.35990259  0.99980345  0.16718178     0.80300
N758        N  0.38102088  0.52391779  0.15047277    -0.78000
C759        C  0.38142295  0.55034119  0.15061189     0.82700
N760        N  0.35883519  0.55226269  0.16716119    -0.78000
C761        C  0.33612134  0.52729992  0.18322965     0.82800
N762        N  0.33624589  0.50112940  0.18233775    -0.79700
O763        O  0.45655818  0.83371054  0.12039616    -0.74400
O764        O  0.40469818  0.83598709  0.04858901    -0.74400
O765        O  0.45769553  0.83577859  0.04878894    -0.74500
O766        O  0.40338809  0.83387560  0.12016839    -0.74500
O767        O  0.42869038  0.88388504  0.11997551    -0.74400
O768        O  0.48293351  0.88578556  0.04849055    -0.74400
O769        O  0.42982050  0.88599593  0.04840198    -0.74400
O770        O  0.48170017  0.88372162  0.12011241    -0.74500
Ni771      Ni  0.42968820  0.83305982  0.08436307     1.25400
Ni772      Ni  0.45669235  0.88661731  0.08439609     1.25400
C773        C  0.47870439  0.85868392  0.13068108     0.87800
C774        C  0.40770605  0.86104506  0.03802482     0.87700
C775        C  0.47989906  0.86078699  0.03815473     0.87800
C776        C  0.40635658  0.85887487  0.13036946     0.87900
O777        O  0.48060953  0.62514816  0.11894592    -0.74400
O778        O  0.42864558  0.56959802  0.04811727    -0.74400
O779        O  0.48219485  0.62282131  0.04767233    -0.74500
O780        O  0.42733465  0.57196163  0.11962961    -0.74500
O781        O  0.40227457  0.59670949  0.11824691    -0.74400
O782        O  0.45744198  0.64788641  0.04639856    -0.74400
O783        O  0.40401888  0.59477579  0.04668974    -0.74400
O784        O  0.45581699  0.65017148  0.11772943    -0.74500
Ni785      Ni  0.45554074  0.59647181  0.08381379     1.25400
Ni786      Ni  0.42898334  0.62326002  0.08207449     1.25400
C787        C  0.47793768  0.64759876  0.12836613     0.87800
C788        C  0.40681796  0.57247534  0.03695082     0.87700
C789        C  0.47964415  0.64488797  0.03672543     0.87800
C790        C  0.40510468  0.57483150  0.12941176     0.87900
C791        C  0.22051613  0.71952115  0.99871615     0.80300
N792        N  0.19585278  0.71811078  0.48337179    -0.78000
C793        C  0.16933662  0.69200827  0.48309440     0.82700
N794        N  0.16725713  0.66668760  0.99946626    -0.78000
C795        C  0.19212560  0.66859375  0.01510543     0.82800
N796        N  0.21839412  0.69493451  0.01436889    -0.79700
C797        C  0.33234619  0.83227067  0.50137799     0.80300
N798        N  0.35699285  0.83385995  0.01598468    -0.78000
C799        C  0.38333835  0.86013339  0.01658748     0.82700
N800        N  0.38540889  0.88534504  0.50138507    -0.78000
C801        C  0.36063542  0.88324429  0.48519225     0.82800
N802        N  0.33449454  0.85679801  0.48557072    -0.79700
C803        C  0.49757197  0.85715767  0.33596760     0.80300
N804        N  0.99987929  0.83478254  0.32051672    -0.78000
C805        C  0.02641790  0.83548520  0.31904072     0.82700
N806        N  0.05135557  0.85912673  0.33378819    -0.78000
C807        C  0.04908866  0.88182408  0.34951358     0.82800
N808        N  0.02232649  0.88063877  0.35011706    -0.79700
C809        C  0.38592173  0.85743088  0.33583176     0.80300
N810        N  0.36140442  0.83535582  0.31959693    -0.78000
C811        C  0.33551823  0.83589700  0.31800638     0.82700
N812        N  0.33391270  0.85903279  0.33353199    -0.78000
C813        C  0.35868755  0.88142791  0.35016566     0.82800
N814        N  0.38437931  0.88040150  0.35087365    -0.79700
O815        O  0.38326165  0.92761193  0.38115078    -0.74400
O816        O  0.38591240  0.98273917  0.45195552    -0.74400
O817        O  0.38623741  0.92960105  0.45276022    -0.74500
O818        O  0.38314580  0.98071645  0.38032934    -0.74500
O819        O  0.33318253  0.95572965  0.38108307    -0.74400
O820        O  0.33626997  0.90434191  0.45316430    -0.74400
O821        O  0.33594407  0.95725653  0.45262941    -0.74400
O822        O  0.33328915  0.90251039  0.38155607    -0.74500
Ni823      Ni  0.38641854  0.95607296  0.41637214     1.25400
Ni824      Ni  0.33291037  0.92905935  0.41727284     1.25400
C825        C  0.35813151  0.90531865  0.37104129     0.87800
C826        C  0.36098248  0.97967911  0.46262973     0.87700
C827        C  0.36140903  0.90751416  0.46355784     0.87800
C828        C  0.35803402  0.97772731  0.37016557     0.87900
C829        C  0.19230032  0.55341325  0.33296189     0.80300
N830        N  0.21528003  0.55165552  0.31848930    -0.78000
C831        C  0.21531697  0.52545027  0.31834290     0.82700
N832        N  0.19237435  0.00097130  0.33312510    -0.78000
C833        C  0.16933813  0.00289958  0.34843013     0.82800
N834        N  0.16918019  0.52879058  0.34784192    -0.79700
C835        C  0.19397245  0.66525558  0.33494180     0.80300
N836        N  0.17087535  0.66676254  0.34952726    -0.78000
C837        C  0.17026408  0.69266367  0.34908957     0.82700
N838        N  0.19306480  0.71751923  0.33304003    -0.78000
C839        C  0.21632475  0.71590483  0.31790719     0.82800
N840        N  0.21663576  0.68982516  0.31935186    -0.79700
O841        O  0.14909983  0.71827076  0.37963569    -0.74400
O842        O  0.09490558  0.71628644  0.45098245    -0.74400
O843        O  0.14794110  0.71622027  0.45115994    -0.74500
O844        O  0.09576660  0.71796669  0.37926043    -0.74500
O845        O  0.07092017  0.66796243  0.37946873    -0.74400
O846        O  0.12274699  0.66621064  0.45164576    -0.74400
O847        O  0.06958043  0.66627820  0.45121178    -0.74400
O848        O  0.12413682  0.66825456  0.38012147    -0.74500
Ni849      Ni  0.12279404  0.71895835  0.41538117     1.25400
Ni850      Ni  0.09593114  0.66539857  0.41548057     1.25400
C851        C  0.14634796  0.69333173  0.36965744     0.87800
C852        C  0.07272184  0.69131000  0.46163953     0.87700
C853        C  0.14493017  0.69118369  0.46183265     0.87800
C854        C  0.07384318  0.69291773  0.36870368     0.87900
O855        O  0.06916150  0.92925122  0.45211829    -0.74400
O856        O  0.12367789  0.98138252  0.38038282    -0.74400
O857        O  0.07052343  0.92797346  0.38050452    -0.74500
O858        O  0.12268265  0.98265438  0.45213277    -0.74500
O859        O  0.14730211  0.95746137  0.45243853    -0.74400
O860        O  0.09567758  0.90330230  0.38062456    -0.74400
O861        O  0.14881415  0.95670179  0.38079639    -0.74400
O862        O  0.09405142  0.90432603  0.45214154    -0.74500
Ni863      Ni  0.09562986  0.95622690  0.41612312     1.25400
Ni864      Ni  0.12234580  0.92958942  0.41664877     1.25400
C865        C  0.07194891  0.90719315  0.46260627     0.87800
C866        C  0.14582956  0.97857916  0.37002341     0.87700
C867        C  0.07354643  0.90590583  0.37020802     0.87800
C868        C  0.14452877  0.97959825  0.46287793     0.87900
O869        O  0.23633919  0.76206700  0.28545438    -0.73500
O870        O  0.29060146  0.81484342  0.21389739    -0.74400
O871        O  0.23744784  0.76139622  0.21378539    -0.74500
O872        O  0.28942049  0.81564322  0.28553950    -0.74500
O873        O  0.31439963  0.79080184  0.28518457    -0.74400
O874        O  0.26237171  0.73649933  0.21354640    -0.74400
O875        O  0.31561236  0.79003598  0.21358304    -0.74400
O876        O  0.26155135  0.73746115  0.28517975    -0.74500
Ni877      Ni  0.26254324  0.78935865  0.24950882     1.25400
Ni878      Ni  0.28937131  0.76282688  0.24947133     1.25400
C879        C  0.23947529  0.74020476  0.29595500     0.87800
C880        C  0.31278290  0.81213205  0.20338258     0.87700
C881        C  0.24033086  0.73934118  0.20320259     0.87800
C882        C  0.31138625  0.81273379  0.29599203     0.87900
C883        C  0.16662290  0.58289219  0.32591146     0.23600
C884        C  0.19281794  0.58203313  0.33325539    -0.24500
C885        C  0.21949131  0.60870569  0.34121921     0.18600
C886        C  0.21993404  0.63593317  0.34189973     0.23600
C887        C  0.19368914  0.63675006  0.33466044    -0.24400
C888        C  0.16704278  0.61007501  0.32670137     0.18500
F889        F  0.14162921  0.61047362  0.31857593    -0.14400
F890        F  0.14086669  0.55756076  0.31688176    -0.16700
F891        F  0.24571793  0.66131541  0.35072611    -0.16700
F892        F  0.24486245  0.60825431  0.34945259    -0.14400
C893        C  0.46388510  0.87445160  0.36100963     0.23600
C894        C  0.46859262  0.85634760  0.33682306    -0.24500
C895        C  0.44546125  0.83786268  0.31309088     0.18600
C896        C  0.41857020  0.83800500  0.31298220     0.23600
C897        C  0.41409472  0.85659521  0.33667557    -0.24400
C898        C  0.43697750  0.87455833  0.36095286     0.18500
F899        F  0.43335291  0.89207324  0.38512800    -0.14400
F900        F  0.48513900  0.89190239  0.38521700    -0.16700
F901        F  0.39729979  0.82040309  0.28886836    -0.16700
F902        F  0.44898296  0.82014314  0.28911952    -0.14400
C903        C  0.24938944  0.77607177  0.49655813     0.23600
C904        C  0.24919627  0.74817828  0.99879497    -0.24500
C905        C  0.27654793  0.74854004  0.00163053     0.18600
C906        C  0.30360494  0.77566709  0.00217993     0.23600
C907        C  0.30372988  0.80356217  0.50093463    -0.24400
C908        C  0.27642330  0.80317885  0.49733838     0.18500
F909        F  0.27568254  0.82906621  0.49543686    -0.14400
F910        F  0.22353843  0.77678310  0.49398428    -0.16700
F911        F  0.32952034  0.77501941  0.00411795    -0.16700
F912        F  0.27728195  0.72263322  0.00301091    -0.14400
C913        C  0.38687058  0.94394721  0.16316186     0.23600
C914        C  0.35981325  0.91650205  0.16649989    -0.24500
C915        C  0.33280248  0.91675119  0.16991346     0.18600
C916        C  0.33284892  0.94377231  0.17016175     0.23600
C917        C  0.35989769  0.97120223  0.16696528    -0.24400
C918        C  0.38690978  0.97097988  0.16340836     0.18500
F919        F  0.41359186  0.99695018  0.16105229    -0.14400
F920        F  0.41351848  0.94483226  0.16053651    -0.16700
F921        F  0.30620189  0.94290298  0.17264897    -0.16700
F922        F  0.30609315  0.89081140  0.17216577    -0.14400
C923        C  0.10987836  0.66822452  0.15486504     0.23600
C924        C  0.13714751  0.69440816  0.16274950    -0.24500
C925        C  0.13703005  0.72122010  0.16931493     0.18600
C926        C  0.11032214  0.72175304  0.16837588     0.23600
C927        C  0.08300608  0.69546287  0.16103066    -0.24400
C928        C  0.08319392  0.66875799  0.15392267     0.18500
F929        F  0.05746265  0.64272560  0.14691139    -0.14400
F930        F  0.10866734  0.64169457  0.14892320    -0.16700
F931        F  0.11145415  0.74825430  0.17425222    -0.16700
F932        F  0.16280227  0.74722851  0.17623821    -0.14400
C933        C  0.50062127  0.74945261  0.50803661     0.23600
C934        C  0.02725109  0.74916656  0.00144187    -0.24500
C935        C  0.05400918  0.77667665  0.99695084     0.18600
C936        C  0.05365284  0.80351745  0.99662564     0.23600
C937        C  0.02683114  0.80372639  0.50195801    -0.24400
C938        C  0.50025649  0.77624612  0.50793439     0.18500
F939        F  0.47364204  0.77505349  0.51290577    -0.14400
F940        F  0.47431691  0.72354879  0.51334445    -0.16700
F941        F  0.08007131  0.82958474  0.99286119    -0.16700
F942        F  0.08073640  0.77781077  0.99367729    -0.14400
C943        C  0.27548333  0.55221416  0.00285408     0.23600
C944        C  0.24787804  0.52470515  0.50211389    -0.24500
C945        C  0.24850999  0.99806207  0.49883163     0.18600
C946        C  0.27562774  0.99826292  0.49812375     0.23600
C947        C  0.30290680  0.52543596  0.99924002    -0.24400
C948        C  0.30255457  0.55242198  0.00214619     0.18500
F949        F  0.32844647  0.57924182  0.00336225    -0.14400
F950        F  0.27622663  0.57883787  0.00487404    -0.16700
F951        F  0.27494286  0.97165366  0.49640366    -0.16700
F952        F  0.22257975  0.97126798  0.49773687    -0.14400
C953        C  0.44222313  0.58134467  0.32209248     0.23600
C954        C  0.41572426  0.58099177  0.33145059    -0.24500
C955        C  0.41666422  0.60798773  0.33964345     0.18600
C956        C  0.44379792  0.63500103  0.33867753     0.23600
C957        C  0.47037808  0.63533498  0.32979278    -0.24400
C958        C  0.46942633  0.60836523  0.32137784     0.18500
F959        F  0.49468436  0.60832361  0.31145692    -0.14400
F960        F  0.44159060  0.55565412  0.31259573    -0.16700
F961        F  0.44426750  0.66072083  0.34761403    -0.16700
F962        F  0.39145660  0.60807484  0.34972907    -0.14400
C963        C  0.10205558  0.92420424  0.19803707     0.23600
C964        C  0.08224382  0.91669518  0.16903149    -0.24500
C965        C  0.08981841  0.93684918  0.14035042     0.18600
C966        C  0.11675424  0.96402118  0.14063409     0.23600
C967        C  0.13659017  0.97149821  0.16959065    -0.24400
C968        C  0.12899883  0.95140856  0.19832875     0.18500
F969        F  0.14726218  0.95842945  0.22718379    -0.14400
F970        F  0.09501887  0.90559276  0.22660000    -0.16700
F971        F  0.12382129  0.98258105  0.11200902    -0.16700
F972        F  0.07160852  0.92988941  0.11145417    -0.14400
C973        C  0.05347744  0.88725701  0.66882328     0.80300
N974        N  0.05157488  0.86275071  0.68439509    -0.78000
C975        C  0.02549560  0.83620992  0.68449614     0.82700
N976        N  0.50064587  0.83390077  0.66855098    -0.78000
C977        C  0.50266546  0.85875134  0.65264990     0.82800
N978        N  0.02898455  0.88514571  0.65308776    -0.79700
C979        C  0.16524663  0.49919816  0.66749847     0.80300
N980        N  0.18983766  0.50122396  0.68284620    -0.78000
C981        C  0.21626985  0.52738711  0.68296731     0.82700
N982        N  0.21822126  0.55222313  0.66706189    -0.78000
C983        C  0.19327258  0.55012519  0.65135573     0.82800
N984        N  0.16714046  0.52367314  0.65189461    -0.79700
C985        C  0.99875663  0.66306457  0.83030320     0.80300
N986        N  0.02322415  0.66487468  0.84583815    -0.78000
C987        C  0.04938955  0.69135004  0.84739635     0.82700
N988        N  0.05123152  0.71641553  0.83232674    -0.78000
C989        C  0.02648441  0.71445179  0.81631109     0.82800
N990        N  0.00047872  0.68786912  0.81589316    -0.79700
C991        C  0.38683149  0.55219519  0.83142690     0.80300
N992        N  0.38495396  0.52754419  0.84648470    -0.78000
C993        C  0.35844922  0.00179222  0.84849875     0.82700
N994        N  0.33346773  0.00002449  0.83329870    -0.78000
C995        C  0.33552217  0.52466276  0.81733012     0.82800
N996        N  0.36210423  0.55068240  0.81720053    -0.79700
O997        O  0.28899140  0.99950453  0.78565081    -0.74400
O998        O  0.23772303  0.50290769  0.71388384    -0.74400
O999        O  0.29065977  0.50275311  0.71399179    -0.74500
O1000       O  0.23584556  0.99973039  0.78523965    -0.74500
O1001       O  0.26120108  0.54953124  0.78632233    -0.74400
O1002       O  0.31594163  0.55276000  0.71485435    -0.74400
O1003       O  0.26280085  0.55291011  0.71485240    -0.74400
O1004       O  0.31414895  0.54931526  0.78645507    -0.74500
Ni1005     Ni  0.26239362  0.49935147  0.74952565     1.25400
Ni1006     Ni  0.28943240  0.55290135  0.75081869     1.25400
C1007       C  0.31104416  0.52408251  0.79643346     0.87800
C1008       C  0.24073812  0.52811089  0.70398274     0.87700
C1009       C  0.31292999  0.52792987  0.70391167     0.87800
C1010       C  0.23875813  0.52438173  0.79609601     0.87900
O1011       O  0.04997324  0.76171997  0.71413490    -0.74400
O1012       O  0.05206338  0.81488853  0.78705126    -0.74400
O1013       O  0.05222277  0.76164297  0.78576605    -0.74500
O1014       O  0.04978475  0.81461634  0.71558660    -0.74500
O1015       O  0.49975637  0.78917568  0.71573451    -0.74400
O1016       O  0.00224916  0.73639032  0.78575358    -0.74400
O1017       O  0.00208807  0.78947295  0.78711921    -0.74400
O1018       O  0.99999768  0.73628973  0.71413084    -0.74500
Ni1019     Ni  0.05278506  0.78909712  0.75052680     1.25400
Ni1020     Ni  0.99926028  0.76196160  0.75083426     1.25400
C1021       C  0.02499429  0.73969274  0.70324222     0.87800
C1022       C  0.02708681  0.81178231  0.79751855     0.87700
C1023       C  0.02731426  0.73927147  0.79588611     0.87800
C1024       C  0.02470602  0.81165290  0.70537211     0.87900
C1025       C  0.33152985  0.52550180  0.49985602     0.80300
N1026       N  0.33381814  0.50337149  0.98343116    -0.78000
C1027       C  0.36004064  0.50335410  0.98319464     0.82700
N1028       N  0.38467753  0.52606530  0.49953615    -0.78000
C1029       C  0.38260328  0.54877993  0.51546635     0.82800
N1030       N  0.35612092  0.54824550  0.51527259    -0.79700
C1031       C  0.21951147  0.52498019  0.00088403     0.80300
N1032       N  0.19499369  0.50279762  0.98468121    -0.78000
C1033       C  0.16879964  0.50287780  0.98401291     0.82700
N1034       N  0.16699351  0.52563728  0.00030111    -0.78000
C1035       C  0.19164471  0.54817257  0.51707217     0.82800
N1036       N  0.21748022  0.54742612  0.51752019    -0.79700
C1037       C  0.02763464  0.72079449  0.50129337     0.80300
N1038       N  0.04965692  0.71848594  0.98515377    -0.78000
C1039       C  0.04937202  0.69206571  0.98413526     0.82700
N1040       N  0.02642453  0.66731257  0.49895229    -0.78000
C1041       C  0.00391229  0.66938141  0.51541606     0.82800
N1042       N  0.00484670  0.69601600  0.51627575    -0.79700
C1043       C  0.02613640  0.83187591  0.00055168     0.80300
N1044       N  0.00388293  0.83402761  0.51738638    -0.78000
C1045       C  0.00331315  0.85999292  0.51726555     0.82700
N1046       N  0.02583317  0.88461319  0.00014452    -0.78000
C1047       C  0.04846165  0.88265776  0.98373815     0.82800
N1048       N  0.04832327  0.85636898  0.98427899    -0.79700
C1049       C  0.05478963  0.69570602  0.66189901     0.80300
N1050       N  0.05252048  0.71753084  0.67887470    -0.78000
C1051       C  0.02605596  0.71695309  0.68059682     0.82700
N1052       N  0.50117207  0.69370972  0.66520105    -0.78000
C1053       C  0.50349262  0.67158877  0.64797162     0.82800
N1054       N  0.03027459  0.67292419  0.64648097    -0.79700
C1055       C  0.16477574  0.69347633  0.66477761     0.80300
N1056       N  0.16660403  0.67092791  0.64901501    -0.78000
C1057       C  0.19251100  0.67027043  0.64959508     0.82700
N1058       N  0.21714682  0.69274287  0.66630108    -0.78000
C1059       C  0.21526148  0.71555052  0.68229084     0.82800
N1060       N  0.18907593  0.71560497  0.68133706    -0.79700
O1061       O  0.16881051  0.57124405  0.61955873    -0.74400
O1062       O  0.16600825  0.62255238  0.54715914    -0.74400
O1063       O  0.16610739  0.56930959  0.54802193    -0.74500
O1064       O  0.16841391  0.62416720  0.61868001    -0.74500
O1065       O  0.21839094  0.64959027  0.61834078    -0.74400
O1066       O  0.21608387  0.59445508  0.54785875    -0.74400
O1067       O  0.21598069  0.64756183  0.54678511    -0.74400
O1068       O  0.21878716  0.59655018  0.61934940    -0.74500
Ni1069     Ni  0.16556079  0.59591474  0.58351167     1.25400
Ni1070     Ni  0.21908291  0.62294726  0.58291879     1.25400
C1071       C  0.19394945  0.57441944  0.62997769     0.87800
C1072       C  0.19092691  0.64458310  0.53644234     0.87700
C1073       C  0.19099677  0.57209622  0.53775597     0.87800
C1074       C  0.19342159  0.64658675  0.62874357     0.87900
C1075       C  0.35966609  0.88752989  0.66770463     0.80300
N1076       N  0.38240018  0.88560755  0.65259803    -0.78000
C1077       C  0.38243367  0.85937787  0.65219333     0.82700
N1078       N  0.35919930  0.83443769  0.66757075    -0.78000
C1079       C  0.33621647  0.83634253  0.68302828     0.82800
N1080       N  0.33671778  0.86282214  0.68276885    -0.79700
C1081       C  0.35968057  0.99932276  0.66717664     0.80300
N1082       N  0.38157532  0.52382994  0.65031344    -0.78000
C1083       C  0.38199158  0.55026783  0.65023999     0.82700
N1084       N  0.35928083  0.55221027  0.66644598    -0.78000
C1085       C  0.33642505  0.52726839  0.68237441     0.82800
N1086       N  0.33653098  0.50108965  0.68168021    -0.79700
O1087       O  0.45611237  0.83309714  0.62092464    -0.74400
O1088       O  0.40456395  0.83612760  0.54921763    -0.74400
O1089       O  0.45752106  0.83573922  0.54931842    -0.74500
O1090       O  0.40306524  0.83351219  0.62077618    -0.74500
O1091       O  0.42852839  0.88351887  0.62106526    -0.74400
O1092       O  0.48285564  0.88574209  0.54947563    -0.74400
O1093       O  0.42978801  0.88613149  0.54949873    -0.74400
O1094       O  0.48139199  0.88310607  0.62109068    -0.74500
Ni1095     Ni  0.42941282  0.83284131  0.58490892     1.25400
Ni1096     Ni  0.45655157  0.88639090  0.58544726     1.25400
C1097       C  0.47828027  0.85796302  0.63143099     0.87800
C1098       C  0.40763166  0.86127621  0.53893306     0.87700
C1099       C  0.47981168  0.86079205  0.53891782     0.87800
C1100       C  0.40611987  0.85848529  0.63125227     0.87900
O1101       O  0.48131494  0.62498404  0.61815137    -0.74400
O1102       O  0.42889950  0.56957345  0.54752745    -0.74400
O1103       O  0.48247619  0.62271969  0.54685249    -0.74500
O1104       O  0.42788126  0.57181833  0.61905345    -0.74500
O1105       O  0.40290580  0.59665645  0.61799070    -0.74400
O1106       O  0.45774360  0.64781477  0.54598614    -0.74400
O1107       O  0.40432195  0.59481182  0.54645897    -0.74400
O1108       O  0.45651236  0.65000316  0.61733721    -0.74500
Ni1109     Ni  0.45598927  0.59635643  0.58310140     1.25400
Ni1110     Ni  0.42947857  0.62320342  0.58176646     1.25400
C1111       C  0.47866240  0.64739722  0.62778507     0.87800
C1112       C  0.40703563  0.57248997  0.53661548     0.87700
C1113       C  0.47988695  0.64481059  0.53609495     0.87800
C1114       C  0.40570199  0.57472579  0.62900512     0.87900
C1115       C  0.22034758  0.72002290  0.49896507     0.80300
N1116       N  0.19591941  0.71760755  0.98341671    -0.78000
C1117       C  0.16937258  0.69154511  0.98342473     0.82700
N1118       N  0.16714380  0.66711695  0.49911301    -0.78000
C1119       C  0.19190810  0.66901861  0.51501207     0.82800
N1120       N  0.21814534  0.69539375  0.51458346    -0.79700
C1121       C  0.33248851  0.83174617  0.00020723     0.80300
N1122       N  0.35680629  0.83434262  0.51722660    -0.78000
C1123       C  0.38325617  0.86051883  0.51761492     0.82700
N1124       N  0.38534329  0.88499756  0.00066801    -0.78000
C1125       C  0.36053158  0.88285652  0.98456562     0.82800
N1126       N  0.33448900  0.85632124  0.98470840    -0.79700
C1127       C  0.49768788  0.85771099  0.83448960     0.80300
N1128       N  0.99978289  0.83508944  0.81942307    -0.78000
C1129       C  0.02614113  0.83538036  0.81857743     0.82700
N1130       N  0.05109609  0.85888135  0.83351340    -0.78000
C1131       C  0.04904470  0.88184646  0.84881592     0.82800
N1132       N  0.02247105  0.88106216  0.84879723    -0.79700
C1133       C  0.38563860  0.85725945  0.83581991     0.80300
N1134       N  0.36106948  0.83505081  0.81981480    -0.78000
C1135       C  0.33511565  0.83547141  0.81840843     0.82700
N1136       N  0.33349416  0.85861437  0.83387083    -0.78000
C1137       C  0.35830531  0.88112545  0.85029173     0.82800
N1138       N  0.38406413  0.88022228  0.85083364    -0.79700
O1139       O  0.38289424  0.92740629  0.88101839    -0.74400
O1140       O  0.38565967  0.98252097  0.95188222    -0.74400
O1141       O  0.38600416  0.92939082  0.95254319    -0.74500
O1142       O  0.38273607  0.98047581  0.88024682    -0.74500
O1143       O  0.33277568  0.95549233  0.88112967    -0.74400
O1144       O  0.33603491  0.90408865  0.95308957    -0.74400
O1145       O  0.33569358  0.95700737  0.95271526    -0.74400
O1146       O  0.33292022  0.90227228  0.88155880    -0.74500
Ni1147     Ni  0.38609940  0.95586371  0.91624339     1.25400
Ni1148     Ni  0.33259151  0.92882386  0.91729503     1.25400
C1149       C  0.35775460  0.90506877  0.87103014     0.87800
C1150       C  0.36074924  0.97942185  0.96269428     0.87700
C1151       C  0.36120784  0.90723870  0.96329572     0.87800
C1152       C  0.35761032  0.97746740  0.87011727     0.87900
C1153       C  0.19183830  0.55301132  0.83146613     0.80300
N1154       N  0.21479697  0.55128903  0.81685035    -0.78000
C1155       C  0.21491769  0.52512036  0.81674407     0.82700
N1156       N  0.19199070  0.00060929  0.83232202    -0.78000
C1157       C  0.16899177  0.00254152  0.84771051     0.82800
N1158       N  0.16885550  0.52842616  0.84655047    -0.79700
C1159       C  0.19334024  0.66470408  0.83466430     0.80300
N1160       N  0.17028496  0.66617063  0.84944732    -0.78000
C1161       C  0.16978420  0.69213449  0.84939596     0.82700
N1162       N  0.19262196  0.71706907  0.83352507    -0.78000
C1163       C  0.21582700  0.71548042  0.81821680     0.82800
N1164       N  0.21604703  0.68935326  0.81928726    -0.79700
O1165       O  0.14880874  0.71775684  0.88022591    -0.74400
O1166       O  0.09477883  0.71589727  0.95168963    -0.74400
O1167       O  0.14781827  0.71575906  0.95175014    -0.74500
O1168       O  0.09552421  0.71749720  0.87995588    -0.74500
O1169       O  0.07064549  0.66749504  0.88024927    -0.74400
O1170       O  0.12259103  0.66575323  0.95230484    -0.74400
O1171       O  0.06940752  0.66589274  0.95202366    -0.74400
O1172       O  0.12382008  0.66773982  0.88076820    -0.74500
Ni1173     Ni  0.12260017  0.71849886  0.91603702     1.25400
Ni1174     Ni  0.09569995  0.66494259  0.91622002     1.25400
C1175       C  0.14599161  0.69280363  0.87020410     0.87800
C1176       C  0.07256886  0.69095338  0.96238241     0.87700
C1177       C  0.14483811  0.69072094  0.96238971     0.87800
C1178       C  0.07358704  0.69244364  0.86942204     0.87900
O1179       O  0.06914142  0.92912607  0.95175809    -0.74400
O1180       O  0.12355213  0.98120111  0.87998819    -0.74400
O1181       O  0.07045199  0.92785834  0.88012760    -0.74500
O1182       O  0.12264533  0.98255790  0.95180341    -0.74500
O1183       O  0.14729960  0.95740685  0.95201122    -0.74400
O1184       O  0.09553610  0.90312034  0.88024996    -0.74400
O1185       O  0.14866228  0.95649106  0.88029503    -0.74400
O1186       O  0.09407020  0.90423695  0.95177564    -0.74500
Ni1187     Ni  0.09557140  0.95609998  0.91576546     1.25400
Ni1188     Ni  0.12228419  0.92946116  0.91623583     1.25400
C1189       C  0.07195489  0.90708019  0.96222190     0.87800
C1190       C  0.14562520  0.97832618  0.86949428     0.87700
C1191       C  0.07345108  0.90578907  0.86977169     0.87800
C1192       C  0.14448498  0.97949868  0.96258585     0.87900
O1193       O  0.23589073  0.76174210  0.78599258    -0.73500
O1194       O  0.29019193  0.81447688  0.71443605    -0.74400
O1195       O  0.23690618  0.76108976  0.71435927    -0.74500
O1196       O  0.28900928  0.81523691  0.78605995    -0.74500
O1197       O  0.31394793  0.79035290  0.78560885    -0.74400
O1198       O  0.26171587  0.73608033  0.71403559    -0.74400
O1199       O  0.31507678  0.78954192  0.71403031    -0.74400
O1200       O  0.26106404  0.73709361  0.78564252    -0.74500
Ni1201     Ni  0.26209627  0.78901593  0.75004769     1.25400
Ni1202     Ni  0.28883494  0.76239144  0.74991939     1.25400
C1203       C  0.23900599  0.73985227  0.79642685     0.87800
C1204       C  0.31234562  0.81171051  0.70392315     0.87700
C1205       C  0.23967424  0.73896615  0.70378592     0.87800
C1206       C  0.31096290  0.81229242  0.79645905     0.87900
C1207       C  0.16611817  0.58245835  0.82458563     0.23600
C1208       C  0.19230826  0.58159169  0.83195657    -0.24500
C1209       C  0.21889061  0.60818890  0.84036989     0.18600
C1210       C  0.21928212  0.63537824  0.84136744     0.23600
C1211       C  0.19306100  0.63621749  0.83405173    -0.24400
C1212       C  0.16648514  0.60961073  0.82569340     0.18500
F1213       F  0.14110883  0.61006297  0.81750606    -0.14400
F1214       F  0.14041903  0.55716749  0.81529634    -0.16700
F1215       F  0.24498502  0.66069479  0.85058474    -0.16700
F1216       F  0.24419421  0.60767406  0.84880276    -0.14400
C1217       C  0.46422038  0.87532227  0.85942992     0.23600
C1218       C  0.46878229  0.85707153  0.83531395    -0.24500
C1219       C  0.44542899  0.83829599  0.81199349     0.18600
C1220       C  0.41836330  0.83809626  0.81243018     0.23600
C1221       C  0.41397266  0.85671473  0.83617557    -0.24400
C1222       C  0.43715309  0.87510261  0.85990103     0.18500
F1223       F  0.43365834  0.89268438  0.88410194    -0.14400
F1224       F  0.48574663  0.89318531  0.88313931    -0.16700
F1225       F  0.39679599  0.82007029  0.78884931    -0.16700
F1226       F  0.44885821  0.82055038  0.78797183    -0.14400
C1227       C  0.24953319  0.77554681  0.99638083     0.23600
C1228       C  0.24901833  0.74870389  0.49937033    -0.24500
C1229       C  0.27633558  0.74908241  0.50292724     0.18600
C1230       C  0.30338029  0.77620529  0.50372860     0.23600
C1231       C  0.30390893  0.80302255  0.99981917    -0.24400
C1232       C  0.27656812  0.80264643  0.99689228     0.18500
F1233       F  0.27580614  0.82853818  0.99546242    -0.14400
F1234       F  0.22365390  0.77626235  0.99449625    -0.16700
F1235       F  0.32925576  0.77553642  0.50629417    -0.16700
F1236       F  0.27707351  0.72319250  0.50477351    -0.14400
C1237       C  0.38684193  0.94362513  0.66465561     0.23600
C1238       C  0.35974897  0.91617082  0.66755274    -0.24500
C1239       C  0.33266986  0.91636337  0.67021594     0.18600
C1240       C  0.33266992  0.94334846  0.67001479     0.23600
C1241       C  0.35974422  0.97078516  0.66721363    -0.24400
C1242       C  0.38683508  0.97063165  0.66446434     0.18500
F1243       F  0.41351621  0.99663675  0.66247581    -0.14400
F1244       F  0.41353644  0.94452777  0.66290246    -0.16700
F1245       F  0.30596966  0.94244468  0.67163774    -0.16700
F1246       F  0.30595284  0.89040350  0.67213466    -0.14400
C1247       C  0.11904231  0.68559078  0.63273821     0.23600
C1248       C  0.13668494  0.69409812  0.66382701    -0.24500
C1249       C  0.12746261  0.70355666  0.69396499     0.18600
C1250       C  0.10096077  0.70444004  0.69308851     0.23600
C1251       C  0.08323374  0.69580591  0.66209360    -0.24400
C1252       C  0.09248994  0.68647819  0.63186031     0.18500
F1253       F  0.07623866  0.67897174  0.60120955    -0.14400
F1254       F  0.12793235  0.67723818  0.60290422    -0.16700
F1255       F  0.09207293  0.71268422  0.72301918    -0.16700
F1256       F  0.14357628  0.71097277  0.72471265    -0.14400
C1257       C  0.50017871  0.74920462  0.00572142     0.23600
C1258       C  0.02757320  0.74940110  0.50203296    -0.24500
C1259       C  0.05413905  0.77685630  0.49628174     0.18600
C1260       C  0.05376719  0.80368938  0.49616880     0.23600
C1261       C  0.02653580  0.80346736  0.00091592    -0.24400
C1262       C  0.49982979  0.77600981  0.00537811     0.18500
F1263       F  0.47306490  0.77480837  0.00857224    -0.14400
F1264       F  0.47370336  0.72319572  0.00949707    -0.16700
F1265       F  0.08002575  0.82966116  0.49098337    -0.16700
F1266       F  0.08072528  0.77796969  0.49140727    -0.14400
C1267       C  0.27526347  0.55187048  0.50480319     0.23600
C1268       C  0.24810796  0.52502435  0.00051089    -0.24500
C1269       C  0.24811941  0.99735163  0.99920393     0.18600
C1270       C  0.27525547  0.99758127  0.99843199     0.23600
C1271       C  0.30275169  0.52516501  0.50042919    -0.24400
C1272       C  0.30235232  0.55210502  0.50387622     0.18500
F1273       F  0.32821297  0.57893805  0.50541294    -0.14400
F1274       F  0.27602808  0.57848156  0.50732963    -0.16700
F1275       F  0.27458834  0.97103210  0.99561811    -0.16700
F1276       F  0.22220741  0.97059668  0.99719469    -0.14400
C1277       C  0.44183328  0.58094140  0.82084823     0.23600
C1278       C  0.41541493  0.58048117  0.83089358    -0.24500
C1279       C  0.41649326  0.60725796  0.84058251     0.18600
C1280       C  0.44369014  0.63421483  0.84026305     0.23600
C1281       C  0.47018214  0.63467907  0.83056252    -0.24400
C1282       C  0.46911212  0.60790197  0.82079584     0.18500
F1283       F  0.49430054  0.60803130  0.81014919    -0.14400
F1284       F  0.44103403  0.55543770  0.81007914    -0.16700
F1285       F  0.44431556  0.65974246  0.85053257    -0.16700
F1286       F  0.39136383  0.60713437  0.85150478    -0.14400
C1287       C  0.10207078  0.92358005  0.69735797     0.23600
C1288       C  0.08195995  0.91587740  0.66866024    -0.24500
C1289       C  0.08933520  0.93577482  0.63971449     0.18600
C1290       C  0.11640227  0.96284334  0.63940185     0.23600
C1291       C  0.13654762  0.97051078  0.66804901    -0.24400
C1292       C  0.12914422  0.95066929  0.69704908     0.18500
F1293       F  0.14771289  0.95784726  0.72562436    -0.14400
F1294       F  0.09517810  0.90531003  0.72623684    -0.16700
F1295       F  0.12326436  0.98112206  0.61053347    -0.16700
F1296       F  0.07075536  0.92867966  0.61116158    -0.14400
C1297       C  0.55342231  0.38800577  0.16943771     0.80300
N1298       N  0.55154673  0.36345301  0.18476886    -0.78000
C1299       C  0.52554875  0.33688394  0.18457834     0.82700
N1300       N  0.00087542  0.33474902  0.16837459    -0.78000
C1301       C  0.00282510  0.35963791  0.15269395     0.82800
N1302       N  0.52898232  0.38592821  0.15359032    -0.79700
C1303       C  0.66531239  0.99992805  0.16906876     0.80300
N1304       N  0.68993163  0.00181546  0.18417511    -0.78000
C1305       C  0.71647810  0.02787956  0.18391742     0.82700
N1306       N  0.71849608  0.05269943  0.16788905    -0.78000
C1307       C  0.69350115  0.05071273  0.15248376     0.82800
N1308       N  0.66728217  0.02439768  0.15339803    -0.79700
C1309       C  0.49896855  0.16369869  0.33003346     0.80300
N1310       N  0.52340208  0.16550967  0.34563279    -0.78000
C1311       C  0.54961970  0.19192847  0.34699242     0.82700
N1312       N  0.55155826  0.21694567  0.33166434    -0.78000
C1313       C  0.52683987  0.21495666  0.31554727     0.82800
N1314       N  0.50077204  0.18843553  0.31533387    -0.79700
C1315       C  0.88704902  0.05289220  0.33216692     0.80300
N1316       N  0.88520805  0.02824029  0.34721102    -0.78000
C1317       C  0.85888753  0.50169013  0.34882641     0.82700
N1318       N  0.83380386  0.49994980  0.33402271    -0.78000
C1319       C  0.83574909  0.02535171  0.31815177     0.82800
N1320       N  0.86231166  0.05136141  0.31798408    -0.79700
O1321       O  0.78911222  0.49942191  0.28693560    -0.74400
O1322       O  0.73811718  0.00339877  0.21445921    -0.74400
O1323       O  0.79115885  0.00326880  0.21474811    -0.74500
O1324       O  0.73598363  0.49961249  0.28694790    -0.74500
O1325       O  0.76157022  0.05018488  0.28676523    -0.74400
O1326       O  0.81639940  0.05327361  0.21547745    -0.74400
O1327       O  0.76320234  0.05340443  0.21531891    -0.74400
O1328       O  0.81447619  0.04996235  0.28706779    -0.74500
Ni1329     Ni  0.76278788  0.99992509  0.25017105     1.25400
Ni1330     Ni  0.78982095  0.05347748  0.25132945     1.25400
C1331       C  0.81132994  0.02474201  0.29716772     0.87800
C1332       C  0.74108082  0.02858761  0.20459800     0.87700
C1333       C  0.81348688  0.02843545  0.20471792     0.87800
C1334       C  0.73914568  0.02505455  0.29662928     0.87900
O1335       O  0.55047424  0.26270463  0.21318684    -0.74400
O1336       O  0.55219073  0.31514005  0.28683986    -0.74400
O1337       O  0.55258794  0.26208400  0.28488508    -0.74500
O1338       O  0.54996319  0.31536056  0.21538478    -0.74500
O1339       O  0.00004692  0.28989964  0.21521196    -0.74400
O1340       O  0.50261068  0.23674306  0.28481919    -0.74400
O1341       O  0.50221411  0.28961651  0.28671418    -0.74400
O1342       O  0.50050113  0.23703156  0.21316529    -0.74500
Ni1343     Ni  0.55308224  0.28970741  0.24996564     1.25400
Ni1344     Ni  0.49955155  0.26238506  0.25014893     1.25400
C1345       C  0.52556116  0.24070781  0.20209099     0.87800
C1346       C  0.52716202  0.31185323  0.29737667     0.87700
C1347       C  0.52768794  0.23969076  0.29498247     0.87800
C1348       C  0.52484272  0.31229387  0.20517624     0.87900
C1349       C  0.83136337  0.02504332  0.00094014     0.80300
N1350       N  0.83371841  0.00335252  0.48392862    -0.78000
C1351       C  0.85993127  0.00329344  0.48355619     0.82700
N1352       N  0.88459636  0.02577132  0.00016125    -0.78000
C1353       C  0.88248535  0.04837034  0.01639730     0.82800
N1354       N  0.85595615  0.04774861  0.01641169    -0.79700
C1355       C  0.71943332  0.02502233  0.50183946     0.80300
N1356       N  0.69493328  0.00272779  0.48571208    -0.78000
C1357       C  0.66873884  0.00280882  0.48478944     0.82700
N1358       N  0.66690703  0.02566378  0.50073081    -0.78000
C1359       C  0.69157519  0.04783618  0.01758502     0.82800
N1360       N  0.71733246  0.04696313  0.01821932    -0.79700
C1361       C  0.52765204  0.22097390  0.00151992     0.80300
N1362       N  0.54963786  0.21866361  0.48538851    -0.78000
C1363       C  0.54932648  0.19223981  0.48394951     0.82700
N1364       N  0.52663107  0.16757911  0.99949012    -0.78000
C1365       C  0.50392131  0.16953330  0.01555793     0.82800
N1366       N  0.50476056  0.19613031  0.01628184    -0.79700
C1367       C  0.52590103  0.33182252  0.50150225     0.80300
N1368       N  0.50390559  0.33427454  0.01740769    -0.78000
C1369       C  0.50343370  0.36029357  0.01733914     0.82700
N1370       N  0.52555012  0.38453792  0.50087756    -0.78000
C1371       C  0.54817617  0.38255392  0.48451934     0.82800
N1372       N  0.54804860  0.35628046  0.48515357    -0.79700
C1373       C  0.55590417  0.19779825  0.15911269     0.80300
N1374       N  0.55347040  0.21950281  0.17618885    -0.78000
C1375       C  0.52676153  0.21831573  0.17891248     0.82700
N1376       N  0.00184653  0.19477264  0.16417609    -0.78000
C1377       C  0.00422848  0.17271682  0.14688676     0.82800
N1378       N  0.53123574  0.17452712  0.14454577    -0.79700
C1379       C  0.66584223  0.19508486  0.16246679     0.80300
N1380       N  0.66744029  0.17215996  0.14738449    -0.78000
C1381       C  0.69310296  0.17104344  0.14878631     0.82700
N1382       N  0.71767995  0.19334651  0.16575867    -0.78000
C1383       C  0.71600335  0.21647131  0.18114224     0.82800
N1384       N  0.69012712  0.21704563  0.17923436    -0.79700
O1385       O  0.66908862  0.07161356  0.12021271    -0.74400
O1386       O  0.66637486  0.12251316  0.04723653    -0.74400
O1387       O  0.66619213  0.06914216  0.04862012    -0.74500
O1388       O  0.66884413  0.12458152  0.11868150    -0.74500
O1389       O  0.71882383  0.14985892  0.11824328    -0.74400
O1390       O  0.71616553  0.09412642  0.04836434    -0.74400
O1391       O  0.71634961  0.14735446  0.04674513    -0.74400
O1392       O  0.71906801  0.09677631  0.11987310    -0.74500
Ni1393     Ni  0.66585041  0.09605122  0.08385146     1.25400
Ni1394     Ni  0.71937479  0.12291872  0.08313870     1.25400
C1395       C  0.69421931  0.07482082  0.13073098     0.87800
C1396       C  0.69132509  0.14444267  0.03642606     0.87700
C1397       C  0.69101901  0.07180348  0.03831812     0.87800
C1398       C  0.69389791  0.14704574  0.12851521     0.87900
C1399       C  0.85930087  0.38769500  0.16661780     0.80300
N1400       N  0.88215848  0.38591593  0.15164479    -0.78000
C1401       C  0.88253955  0.35986495  0.15170821     0.82700
N1402       N  0.85952182  0.33494326  0.16738529    -0.78000
C1403       C  0.83642702  0.33670802  0.18271723     0.82800
N1404       N  0.83659008  0.36301640  0.18201817    -0.79700
C1405       C  0.85854570  0.49913090  0.16610454     0.80300
N1406       N  0.88257026  0.02447267  0.15186888    -0.78000
C1407       C  0.88279089  0.05081712  0.15141020     0.82700
N1408       N  0.85995304  0.05268912  0.16738618    -0.78000
C1409       C  0.83718358  0.02779713  0.18350724     0.82800
N1410       N  0.83750369  0.00171703  0.18320960    -0.79700
O1411       O  0.95641915  0.33382509  0.12078819    -0.74400
O1412       O  0.90477053  0.33651972  0.04907642    -0.74400
O1413       O  0.95765306  0.33617213  0.04920056    -0.74500
O1414       O  0.90334822  0.33409243  0.12060467    -0.74500
O1415       O  0.92865766  0.38410664  0.12062564    -0.74400
O1416       O  0.98300315  0.38618262  0.04918242    -0.74400
O1417       O  0.92997165  0.38653319  0.04908769    -0.74400
O1418       O  0.98158148  0.38383957  0.12080775    -0.74500
Ni1419     Ni  0.92965138  0.33337693  0.08477793     1.25400
Ni1420     Ni  0.95672079  0.38694096  0.08508292     1.25400
C1421       C  0.97851669  0.35874851  0.13126671     0.87800
C1422       C  0.90782875  0.36162915  0.03865844     0.87700
C1423       C  0.97990823  0.36119008  0.03870943     0.87800
C1424       C  0.90631247  0.35906121  0.13090842     0.87900
O1425       O  0.98183931  0.12564094  0.11807527    -0.74400
O1426       O  0.92901045  0.06950133  0.04819873    -0.74400
O1427       O  0.98250157  0.12284969  0.04688596    -0.74500
O1428       O  0.92849699  0.07229638  0.11976421    -0.74500
O1429       O  0.90332613  0.09693362  0.11862094    -0.74400
O1430       O  0.95759100  0.14776612  0.04595517    -0.74400
O1431       O  0.90427120  0.09457202  0.04708022    -0.74400
O1432       O  0.95681437  0.15043687  0.11721167    -0.74500
Ni1433     Ni  0.95630529  0.09664961  0.08343670     1.25400
Ni1434     Ni  0.92959055  0.12328673  0.08203909     1.25400
C1435       C  0.97918007  0.14811089  0.12742803     0.87800
C1436       C  0.90701327  0.07223603  0.03736355     0.87700
C1437       C  0.97981319  0.14488001  0.03611085     0.87800
C1438       C  0.90631290  0.07516063  0.12981947     0.87900
C1439       C  0.72080623  0.21992296  0.99911782     0.80300
N1440       N  0.69555738  0.21789380  0.48395075    -0.78000
C1441       C  0.66903892  0.19179672  0.48357352     0.82700
N1442       N  0.66757383  0.16705864  0.99931002    -0.78000
C1443       C  0.69236972  0.16888787  0.01500416     0.82800
N1444       N  0.71863222  0.19524986  0.01457772    -0.79700
C1445       C  0.83217285  0.33182203  0.50136153     0.80300
N1446       N  0.85704910  0.33456062  0.01708084    -0.78000
C1447       C  0.88343080  0.36078000  0.01741263     0.82700
N1448       N  0.88514346  0.38496790  0.50143629    -0.78000
C1449       C  0.86032557  0.38284576  0.48538241     0.82800
N1450       N  0.83423195  0.35636745  0.48570606    -0.79700
C1451       C  0.99751249  0.35731950  0.33519141     0.80300
N1452       N  0.49966289  0.33471607  0.31991141    -0.78000
C1453       C  0.52609106  0.33517270  0.31886647     0.82700
N1454       N  0.55099351  0.35864860  0.33393502    -0.78000
C1455       C  0.54879736  0.38142313  0.34956155     0.82800
N1456       N  0.52215698  0.38048205  0.34972196    -0.79700
C1457       C  0.88563551  0.35704487  0.33616252     0.80300
N1458       N  0.86109878  0.33496170  0.31997354    -0.78000
C1459       C  0.83520149  0.33548662  0.31851260     0.82700
N1460       N  0.83360672  0.35859513  0.33410615    -0.78000
C1461       C  0.85839718  0.38097011  0.35070897     0.82800
N1462       N  0.88409742  0.37997728  0.35129654    -0.79700
O1463       O  0.88303129  0.42713190  0.38165084    -0.74400
O1464       O  0.88567502  0.48242233  0.45215013    -0.74400
O1465       O  0.88592136  0.42925293  0.45319931    -0.74500
O1466       O  0.88308521  0.48028323  0.38056085    -0.74500
O1467       O  0.83311738  0.45539052  0.38127224    -0.74400
O1468       O  0.83594804  0.40400321  0.45351171    -0.74400
O1469       O  0.83570249  0.45695601  0.45279153    -0.74400
O1470       O  0.83305265  0.40212026  0.38195427    -0.74500
Ni1471     Ni  0.88620914  0.45567572  0.41672652     1.25400
Ni1472     Ni  0.83269097  0.42872157  0.41754750     1.25400
C1473       C  0.85788536  0.40487017  0.37153348     0.87800
C1474       C  0.86073765  0.47939674  0.46273748     0.87700
C1475       C  0.86107759  0.40715497  0.46391097     0.87800
C1476       C  0.85800976  0.47733403  0.37035037     0.87900
C1477       C  0.69246538  0.05381388  0.33244637     0.80300
N1478       N  0.71534023  0.05204114  0.31766372    -0.78000
C1479       C  0.71538474  0.02583586  0.31742420     0.82700
N1480       N  0.69194758  0.50039590  0.33363952    -0.78000
C1481       C  0.66880282  0.50227104  0.34865927     0.82800
N1482       N  0.66947124  0.02922939  0.34756753    -0.79700
C1483       C  0.69385753  0.16544023  0.33529344     0.80300
N1484       N  0.67073035  0.16687813  0.34989299    -0.78000
C1485       C  0.67004438  0.19274127  0.34941555     0.82700
N1486       N  0.69276769  0.21759944  0.33326926    -0.78000
C1487       C  0.71603230  0.21601292  0.31810809     0.82800
N1488       N  0.71643600  0.18999590  0.31963012    -0.79700
O1489       O  0.64891527  0.21829712  0.38010469    -0.74400
O1490       O  0.59469852  0.21622156  0.45145835    -0.74400
O1491       O  0.64771296  0.21609482  0.45164394    -0.74500
O1492       O  0.59563957  0.21803242  0.37972631    -0.74500
O1493       O  0.57079501  0.16802660  0.37981168    -0.74400
O1494       O  0.62247965  0.16608593  0.45202474    -0.74400
O1495       O  0.56933747  0.16621352  0.45156244    -0.74400
O1496       O  0.62395226  0.16827877  0.38049268    -0.74500
Ni1497     Ni  0.62260817  0.21893328  0.41586684     1.25400
Ni1498     Ni  0.59572307  0.16537261  0.41584114     1.25400
C1499       C  0.64614841  0.19337239  0.37004590     0.87800
C1500       C  0.57249392  0.19123838  0.46205465     0.87700
C1501       C  0.64466649  0.19102828  0.46227295     0.87800
C1502       C  0.57375833  0.19299977  0.36906209     0.87900
O1503       O  0.56886623  0.42894249  0.45244039    -0.74400
O1504       O  0.62319092  0.48081290  0.38054325    -0.74400
O1505       O  0.57011636  0.42744203  0.38082997    -0.74500
O1506       O  0.62238006  0.48233629  0.45227344    -0.74500
O1507       O  0.64698683  0.45713351  0.45267992    -0.74400
O1508       O  0.59526159  0.40276350  0.38102237    -0.74400
O1509       O  0.64835569  0.45615462  0.38105121    -0.74400
O1510       O  0.59374869  0.40400370  0.45254006    -0.74500
Ni1511     Ni  0.59525352  0.45579011  0.41636435     1.25400
Ni1512     Ni  0.62197270  0.42915193  0.41698035     1.25400
C1513       C  0.57166384  0.40690735  0.46296566     0.87800
C1514       C  0.64532628  0.47798663  0.37021749     0.87700
C1515       C  0.57316273  0.40538887  0.37051609     0.87800
C1516       C  0.64423819  0.47930466  0.46304919     0.87900
O1517       O  0.73605332  0.26213425  0.28559280    -0.73500
O1518       O  0.79055453  0.31490444  0.21429322    -0.74400
O1519       O  0.73733002  0.26164539  0.21389267    -0.74500
O1520       O  0.78922991  0.31551383  0.28592292    -0.74500
O1521       O  0.81405812  0.29051723  0.28550117    -0.74400
O1522       O  0.76207980  0.23657483  0.21358680    -0.74400
O1523       O  0.81543964  0.28996804  0.21391009    -0.74400
O1524       O  0.76112720  0.23738602  0.28525277    -0.74500
Ni1525     Ni  0.76238772  0.28942589  0.24976646     1.25400
Ni1526     Ni  0.78905199  0.26272389  0.24965833     1.25400
C1527       C  0.73912854  0.24023767  0.29607829     0.87800
C1528       C  0.81269076  0.31212587  0.20377656     0.87700
C1529       C  0.74017014  0.23960229  0.20315418     0.87800
C1530       C  0.81109796  0.31245379  0.29640060     0.87900
C1531       C  0.66683433  0.08328642  0.32513541     0.23600
C1532       C  0.69296038  0.08241032  0.33286783    -0.24500
C1533       C  0.71949686  0.10901248  0.34144459     0.18600
C1534       C  0.71984830  0.13619027  0.34242164     0.23600
C1535       C  0.69364594  0.13699812  0.33487008    -0.24400
C1536       C  0.66716091  0.11041277  0.32622615     0.18500
F1537       F  0.64185090  0.11087798  0.31769140    -0.14400
F1538       F  0.64126003  0.05803799  0.31543210    -0.16700
F1539       F  0.74548368  0.16152286  0.35178947    -0.16700
F1540       F  0.74479408  0.10851860  0.34997584    -0.14400
C1541       C  0.96391563  0.37463746  0.36036718     0.23600
C1542       C  0.96860137  0.35662156  0.33601603    -0.24500
C1543       C  0.94541570  0.33812137  0.31235829     0.18600
C1544       C  0.91839414  0.33799570  0.31266736     0.23600
C1545       C  0.91389352  0.35639999  0.33663438    -0.24400
C1546       C  0.93689402  0.37449025  0.36071097     0.18500
F1547       F  0.93326623  0.39185465  0.38511282    -0.14400
F1548       F  0.98528028  0.39220979  0.38440063    -0.16700
F1549       F  0.89699917  0.32029157  0.28873213    -0.16700
F1550       F  0.94898882  0.32061458  0.28811205    -0.14400
C1551       C  0.74918398  0.27578572  0.49705300     0.23600
C1552       C  0.74942513  0.24864602  0.99961999    -0.24500
C1553       C  0.77680084  0.24915339  0.00323558     0.18600
C1554       C  0.80377732  0.27634595  0.00396763     0.23600
C1555       C  0.80353445  0.30314572  0.50114492    -0.24400
C1556       C  0.77626028  0.30283791  0.49762317     0.18500
F1557       F  0.77559132  0.32875769  0.49561037    -0.14400
F1558       F  0.72337487  0.27658253  0.49455401    -0.16700
F1559       F  0.82972041  0.27580957  0.00659510    -0.16700
F1560       F  0.77766609  0.22333506  0.00521412    -0.14400
C1561       C  0.88596769  0.44369659  0.16213880     0.23600
C1562       C  0.85908344  0.41619334  0.16614657    -0.24500
C1563       C  0.83197628  0.41623536  0.16979261     0.18600
C1564       C  0.83178101  0.44313300  0.16961488     0.23600
C1565       C  0.85867648  0.47061866  0.16579731    -0.24400
C1566       C  0.88575861  0.47058427  0.16191936     0.18500
F1567       F  0.91230793  0.49662063  0.15888084    -0.14400
F1568       F  0.91271653  0.44480991  0.15938646    -0.16700
F1569       F  0.80506578  0.44208938  0.17240869    -0.16700
F1570       F  0.80541429  0.39021737  0.17281086    -0.14400
C1571       C  0.61905571  0.18531767  0.13102423     0.23600
C1572       C  0.63792856  0.19614642  0.16104347    -0.24500
C1573       C  0.63004839  0.20829799  0.18979099     0.18600
C1574       C  0.60370798  0.20944627  0.18869632     0.23600
C1575       C  0.58460735  0.19827358  0.15893272    -0.24400
C1576       C  0.59260115  0.18642030  0.12995305     0.18500
F1577       F  0.57512034  0.17644322  0.10031349    -0.14400
F1578       F  0.62651528  0.17427903  0.10239272    -0.16700
F1579       F  0.59633055  0.22039181  0.21749418    -0.16700
F1580       F  0.64726421  0.21806730  0.21965331    -0.14400
C1581       C  0.00016293  0.24922031  0.50757138     0.23600
C1582       C  0.52755011  0.24957755  0.00215873    -0.24500
C1583       C  0.55407113  0.27702561  0.99614470     0.18600
C1584       C  0.55368556  0.30384728  0.99598163     0.23600
C1585       C  0.52638423  0.30345545  0.50203769    -0.24400
C1586       C  0.99975436  0.27599098  0.50739365     0.18500
F1587       F  0.97309637  0.27477143  0.51206165    -0.14400
F1588       F  0.97385811  0.22328255  0.51272090    -0.16700
F1589       F  0.57991989  0.32980109  0.99059023    -0.16700
F1590       F  0.58064822  0.27816359  0.99107373    -0.14400
C1591       C  0.77511976  0.05142543  0.00589726     0.23600
C1592       C  0.74807168  0.02510257  0.50159247    -0.24500
C1593       C  0.74814516  0.49758237  0.49913169     0.18600
C1594       C  0.77528050  0.49781168  0.49830220     0.23600
C1595       C  0.80258800  0.02471118  0.00148379    -0.24400
C1596       C  0.80219467  0.05163690  0.00514833     0.18500
F1597       F  0.82805457  0.07844959  0.00698917    -0.14400
F1598       F  0.77590010  0.07803505  0.00860549    -0.16700
F1599       F  0.77461599  0.47123509  0.49603505    -0.16700
F1600       F  0.72222935  0.47079701  0.49762910    -0.14400
C1601       C  0.94196171  0.08147070  0.32110535     0.23600
C1602       C  0.91563607  0.08114325  0.33126359    -0.24500
C1603       C  0.91677643  0.10805224  0.34044089     0.18600
C1604       C  0.94396802  0.13499303  0.33961543     0.23600
C1605       C  0.97037426  0.13530201  0.32989121    -0.24400
C1606       C  0.96923322  0.10841145  0.32056998     0.18500
F1607       F  0.99435569  0.10839437  0.30995655    -0.14400
F1608       F  0.94107197  0.05584891  0.31067818    -0.16700
F1609       F  0.94468945  0.16065314  0.34948502    -0.16700
F1610       F  0.89172306  0.10809245  0.35133854    -0.14400
C1611       C  0.60178095  0.42410183  0.19844864     0.23600
C1612       C  0.58188508  0.41656219  0.16954604    -0.24500
C1613       C  0.58957950  0.43641881  0.14053677     0.18600
C1614       C  0.61676024  0.46333687  0.14037350     0.23600
C1615       C  0.63666499  0.47088904  0.16926207    -0.24400
C1616       C  0.62896828  0.45105098  0.19830110     0.18500
F1617       F  0.64736869  0.45807589  0.22702268    -0.14400
F1618       F  0.59459025  0.40577851  0.22732194    -0.16700
F1619       F  0.62398447  0.48156389  0.11140385    -0.16700
F1620       F  0.57123536  0.42938736  0.11176071    -0.14400
C1621       C  0.55342091  0.38777489  0.66940960     0.80300
N1622       N  0.55157801  0.36324848  0.68484284    -0.78000
C1623       C  0.52554416  0.33666990  0.68483422     0.82700
N1624       N  0.00067962  0.33439256  0.66858201    -0.78000
C1625       C  0.00263868  0.35925139  0.65280592     0.82800
N1626       N  0.52890454  0.38564173  0.65368991    -0.79700
C1627       C  0.66518367  0.99879274  0.66746038     0.80300
N1628       N  0.68983898  0.00087124  0.68270377    -0.78000
C1629       C  0.71621876  0.02709170  0.68285420     0.82700
N1630       N  0.71804763  0.05192568  0.66712347    -0.78000
C1631       C  0.69304698  0.04979218  0.65154625     0.82800
N1632       N  0.66696358  0.02328325  0.65201907    -0.79700
C1633       C  0.49896335  0.16371990  0.83102286     0.80300
N1634       N  0.52341690  0.16562534  0.84673836    -0.78000
C1635       C  0.54965050  0.19205459  0.84801360     0.82700
N1636       N  0.55156970  0.21703786  0.83260386    -0.78000
C1637       C  0.52684232  0.21499925  0.81644794     0.82800
N1638       N  0.50081903  0.18844164  0.81617871    -0.79700
C1639       C  0.88677778  0.05275619  0.83248671     0.80300
N1640       N  0.88477280  0.02812941  0.84782194    -0.78000
C1641       C  0.85855664  0.50141795  0.84783720     0.82700
N1642       N  0.83349958  0.49971311  0.83294608    -0.78000
C1643       C  0.83560052  0.02504858  0.81762036     0.82800
N1644       N  0.86215922  0.05109763  0.81767798    -0.79700
O1645       O  0.78896201  0.49936615  0.78553574    -0.74400
O1646       O  0.73784371  0.00278566  0.71378048    -0.74400
O1647       O  0.79084618  0.00273506  0.71410787    -0.74500
O1648       O  0.73584431  0.49961845  0.78538637    -0.74500
O1649       O  0.76135700  0.04976063  0.78599529    -0.74400
O1650       O  0.81601390  0.05275002  0.71464271    -0.74400
O1651       O  0.76282336  0.05279198  0.71453063    -0.74400
O1652       O  0.81432966  0.04959217  0.78623059    -0.74500
Ni1653     Ni  0.76255275  0.99943923  0.74953409     1.25400
Ni1654     Ni  0.78953768  0.05299663  0.75052510     1.25400
C1655       C  0.81121448  0.02440309  0.79643626     0.87800
C1656       C  0.74077157  0.02793068  0.70379036     0.87700
C1657       C  0.81309640  0.02789854  0.70396588     0.87800
C1658       C  0.73893447  0.02464870  0.79588739     0.87900
O1659       O  0.55019170  0.26216428  0.71400315    -0.74400
O1660       O  0.55220516  0.31515060  0.78709284    -0.74400
O1661       O  0.55253134  0.26205867  0.78563454    -0.74500
O1662       O  0.54991512  0.31503600  0.71563382    -0.74500
O1663       O  0.99983259  0.28959298  0.71553965    -0.74400
O1664       O  0.50255417  0.23671382  0.78562694    -0.74400
O1665       O  0.50222397  0.28959576  0.78718798    -0.74400
O1666       O  0.50021220  0.23668648  0.71404535    -0.74500
Ni1667     Ni  0.55299278  0.28949302  0.75046095     1.25400
Ni1668     Ni  0.49946055  0.26226138  0.75080271     1.25400
C1669       C  0.52520790  0.24008776  0.70319002     0.87800
C1670       C  0.52718873  0.31186771  0.79768565     0.87700
C1671       C  0.52764608  0.23969048  0.79580727     0.87800
C1672       C  0.52481166  0.31206147  0.70551694     0.87900
C1673       C  0.83165322  0.02581830  0.49959132     0.80300
N1674       N  0.83348172  0.00269499  0.98504563    -0.78000
C1675       C  0.85977602  0.00280932  0.98429062     0.82700
N1676       N  0.88468995  0.02616553  0.49960704    -0.78000
C1677       C  0.88262846  0.04886667  0.51562272     0.82800
N1678       N  0.85619512  0.04845018  0.51524068    -0.79700
C1679       C  0.71915697  0.02433779  0.00266438     0.80300
N1680       N  0.69476823  0.00228959  0.98606595    -0.78000
C1681       C  0.66870833  0.00263359  0.98467689     0.82700
N1682       N  0.66692639  0.02554101  0.00062973    -0.78000
C1683       C  0.69163377  0.04819207  0.51724132     0.82800
N1684       N  0.71757718  0.04763255  0.51742631    -0.79700
C1685       C  0.52738974  0.22067865  0.50178278     0.80300
N1686       N  0.55011535  0.21903241  0.98558698    -0.78000
C1687       C  0.54984949  0.19262822  0.98427896     0.82700
N1688       N  0.52628321  0.16725616  0.49951803    -0.78000
C1689       C  0.50380417  0.16932351  0.51607082     0.82800
N1690       N  0.50468328  0.19592834  0.51689682    -0.79700
C1691       C  0.52632436  0.33230821  0.00144151     0.80300
N1692       N  0.50349499  0.33377498  0.51751481    -0.78000
C1693       C  0.50305272  0.35980390  0.51753627     0.82700
N1694       N  0.52590965  0.38500403  0.00062885    -0.78000
C1695       C  0.54855066  0.38301964  0.98432027     0.82800
N1696       N  0.54845474  0.35675728  0.98504780    -0.79700
C1697       C  0.55481830  0.19566677  0.66272012     0.80300
N1698       N  0.55264959  0.21769619  0.67929519    -0.78000
C1699       C  0.52622471  0.21720587  0.68081735     0.82700
N1700       N  0.00109849  0.19387462  0.66530987    -0.78000
C1701       C  0.00331333  0.17148996  0.64862181     0.82800
N1702       N  0.53026719  0.17278368  0.64750570    -0.79700
C1703       C  0.66474193  0.19344664  0.66503417     0.80300
N1704       N  0.66647104  0.17079969  0.64939383    -0.78000
C1705       C  0.69236680  0.17012805  0.64988422     0.82700
N1706       N  0.71708611  0.19268111  0.66638367    -0.78000
C1707       C  0.71528128  0.21558152  0.68224014     0.82800
N1708       N  0.68911688  0.21565194  0.68135903    -0.79700
O1709       O  0.66855018  0.07097440  0.61994573    -0.74400
O1710       O  0.66570584  0.12225096  0.54755613    -0.74400
O1711       O  0.66594199  0.06908122  0.54840555    -0.74500
O1712       O  0.66817512  0.12393976  0.61907455    -0.74500
O1713       O  0.71815325  0.14934178  0.61873364    -0.74400
O1714       O  0.71591993  0.09432661  0.54823600    -0.74400
O1715       O  0.71567990  0.14732393  0.54720333    -0.74400
O1716       O  0.71852749  0.09629232  0.61970638    -0.74500
Ni1717     Ni  0.66531353  0.09565289  0.58390865     1.25400
Ni1718     Ni  0.71883760  0.12272707  0.58331380     1.25400
C1719       C  0.69369289  0.07413411  0.63030616     0.87800
C1720       C  0.69060503  0.14430138  0.53685314     0.87700
C1721       C  0.69086779  0.07196248  0.53809878     0.87800
C1722       C  0.69319949  0.14636977  0.62911160     0.87900
C1723       C  0.85906313  0.38749227  0.66654861     0.80300
N1724       N  0.88192811  0.38564674  0.65170889    -0.78000
C1725       C  0.88218999  0.35953695  0.65174778     0.82700
N1726       N  0.85905819  0.33463567  0.66729212    -0.78000
C1727       C  0.83594822  0.33645018  0.68250037     0.82800
N1728       N  0.83620655  0.36281803  0.68181232    -0.79700
C1729       C  0.85905504  0.49927996  0.66590892     0.80300
N1730       N  0.88224866  0.02403697  0.65140396    -0.78000
C1731       C  0.88237649  0.05033048  0.65085925     0.82700
N1732       N  0.85949584  0.05216433  0.66671543    -0.78000
C1733       C  0.83674088  0.02726290  0.68277861     0.82800
N1734       N  0.83712683  0.00122862  0.68259762    -0.79700
O1735       O  0.95612240  0.33342165  0.62113268    -0.74400
O1736       O  0.90444752  0.33593078  0.54929448    -0.74400
O1737       O  0.95740210  0.33568198  0.54953026    -0.74500
O1738       O  0.90301593  0.33367138  0.62083296    -0.74500
O1739       O  0.92835769  0.38368408  0.62078958    -0.74400
O1740       O  0.98267975  0.38569100  0.54938456    -0.74400
O1741       O  0.92959571  0.38594212  0.54924544    -0.74400
O1742       O  0.98130599  0.38343494  0.62101196    -0.74500
Ni1743     Ni  0.92935308  0.33290007  0.58506928     1.25400
Ni1744     Ni  0.95639839  0.38646131  0.58526578     1.25400
C1745       C  0.97825406  0.35835789  0.63151866     0.87800
C1746       C  0.90747594  0.36101418  0.53881853     0.87700
C1747       C  0.97962244  0.36070477  0.53896454     0.87800
C1748       C  0.90598258  0.35866177  0.63106350     0.87900
O1749       O  0.98134120  0.12500651  0.61851621    -0.74400
O1750       O  0.92891643  0.06958621  0.54782427    -0.74400
O1751       O  0.98246124  0.12277081  0.54716465    -0.74500
O1752       O  0.92806579  0.07182044  0.61938185    -0.74500
O1753       O  0.90297680  0.09655079  0.61840959    -0.74400
O1754       O  0.95769255  0.14783265  0.54643550    -0.74400
O1755       O  0.90431090  0.09479492  0.54686087    -0.74400
O1756       O  0.95643150  0.14992035  0.61781971    -0.74500
Ni1757     Ni  0.95604907  0.09638259  0.58341508     1.25400
Ni1758     Ni  0.92945864  0.12315398  0.58220394     1.25400
C1759       C  0.97858093  0.14733141  0.62829081     0.87800
C1760       C  0.90703838  0.07250101  0.53693209     0.87700
C1761       C  0.97981861  0.14483391  0.53644324     0.87800
C1762       C  0.90590108  0.07469839  0.62942820     0.87900
C1763       C  0.72002121  0.21976541  0.49958911     0.80300
N1764       N  0.69627966  0.21805926  0.98368806    -0.78000
C1765       C  0.66975106  0.19198679  0.98344898     0.82700
N1766       N  0.66681434  0.16686241  0.49953425    -0.78000
C1767       C  0.69156138  0.16874078  0.51546968     0.82800
N1768       N  0.71778347  0.19510712  0.51513857    -0.79700
C1769       C  0.83250779  0.33240822  0.00140935     0.80300
N1770       N  0.85669013  0.33391405  0.51706993    -0.78000
C1771       C  0.88309007  0.36013126  0.51747606     0.82700
N1772       N  0.88545249  0.38558071  0.00131555    -0.78000
C1773       C  0.86059873  0.38341002  0.98530352     0.82800
N1774       N  0.83450307  0.35691405  0.98572014    -0.79700
C1775       C  0.99740517  0.35727074  0.83507477     0.80300
N1776       N  0.49966237  0.33470889  0.82007036    -0.78000
C1777       C  0.52610796  0.33520215  0.81904283     0.82700
N1778       N  0.55101065  0.35872747  0.83398244    -0.78000
C1779       C  0.54880712  0.38152092  0.84949600     0.82800
N1780       N  0.52215583  0.38056224  0.84967869    -0.79700
C1781       C  0.88577250  0.35744194  0.83522607     0.80300
N1782       N  0.86122452  0.33528273  0.81915254    -0.78000
C1783       C  0.83522469  0.33562451  0.81799682     0.82700
N1784       N  0.83353711  0.35861902  0.83377080    -0.78000
C1785       C  0.85834351  0.38107105  0.85025156     0.82800
N1786       N  0.88414606  0.38026272  0.85054524    -0.79700
O1787       O  0.88295879  0.42721778  0.88115774    -0.74400
O1788       O  0.88592396  0.48280256  0.95142051    -0.74400
O1789       O  0.88612370  0.42963496  0.95271334    -0.74500
O1790       O  0.88287393  0.48025382  0.87978848    -0.74500
O1791       O  0.83291030  0.45530453  0.88072724    -0.74400
O1792       O  0.83615245  0.40442059  0.95333982    -0.74400
O1793       O  0.83595473  0.45736727  0.95227863    -0.74400
O1794       O  0.83298266  0.40211435  0.88176881    -0.74500
Ni1795     Ni  0.88624812  0.45588160  0.91609263     1.25400
Ni1796     Ni  0.83273516  0.42890577  0.91720971     1.25400
C1797       C  0.85780123  0.40490646  0.87118727     0.87800
C1798       C  0.86103843  0.47981508  0.96212808     0.87700
C1799       C  0.86131116  0.40761807  0.96366287     0.87800
C1800       C  0.85774013  0.47718612  0.86958126     0.87900
C1801       C  0.69229971  0.05347851  0.83167478     0.80300
N1802       N  0.71516479  0.05169322  0.81687554    -0.78000
C1803       C  0.71518147  0.02546705  0.81663179     0.82700
N1804       N  0.69187417  0.50034789  0.83244842    -0.78000
C1805       C  0.66878665  0.50223995  0.84765247     0.82800
N1806       N  0.66931501  0.02891243  0.84680170    -0.79700
C1807       C  0.69382234  0.16516441  0.83527537     0.80300
N1808       N  0.67072940  0.16663514  0.84995891    -0.78000
C1809       C  0.67015189  0.19256388  0.84965358     0.82700
N1810       N  0.69292952  0.21743005  0.83360961    -0.78000
C1811       C  0.71614986  0.21581912  0.81838224     0.82800
N1812       N  0.71645997  0.18974906  0.81971695    -0.79700
O1813       O  0.64919315  0.21827810  0.88035139    -0.74400
O1814       O  0.59534619  0.21656830  0.95199730    -0.74400
O1815       O  0.64830795  0.21630587  0.95185354    -0.74500
O1816       O  0.59594180  0.21817803  0.88029765    -0.74500
O1817       O  0.57100363  0.16817364  0.88057336    -0.74400
O1818       O  0.62300663  0.16629463  0.95236826    -0.74400
O1819       O  0.56993612  0.16655779  0.95226044    -0.74400
O1820       O  0.62412029  0.16826019  0.88087976    -0.74500
Ni1821     Ni  0.62307570  0.21911038  0.91624995     1.25400
Ni1822     Ni  0.59610048  0.16554796  0.91639903     1.25400
C1823       C  0.64633649  0.19329907  0.87034816     0.87800
C1824       C  0.57311853  0.19161640  0.96263431     0.87700
C1825       C  0.64528099  0.19124253  0.96244006     0.87800
C1826       C  0.57393026  0.19313880  0.86984995     0.87900
O1827       O  0.56913875  0.42932218  0.95204284    -0.74400
O1828       O  0.62331533  0.48094330  0.87983488    -0.74400
O1829       O  0.57021805  0.42763658  0.88046138    -0.74500
O1830       O  0.62262915  0.48271375  0.95158842    -0.74500
O1831       O  0.64726210  0.45753327  0.95196664    -0.74400
O1832       O  0.59532328  0.40291258  0.88072993    -0.74400
O1833       O  0.64843738  0.45624326  0.88033624    -0.74400
O1834       O  0.59405564  0.40441757  0.95221843    -0.74500
Ni1835     Ni  0.59544360  0.45606561  0.91582115     1.25400
Ni1836     Ni  0.62215558  0.42941657  0.91647389     1.25400
C1837       C  0.57198247  0.40733117  0.96265725     0.87800
C1838       C  0.64539054  0.47804039  0.86941387     0.87700
C1839       C  0.57321443  0.40553494  0.87026632     0.87800
C1840       C  0.64451407  0.47971334  0.96229969     0.87900
O1841       O  0.73601850  0.26190459  0.78588656    -0.73500
O1842       O  0.79006164  0.31457859  0.71416070    -0.74400
O1843       O  0.73689438  0.26113463  0.71423829    -0.74500
O1844       O  0.78907028  0.31539552  0.78578260    -0.74500
O1845       O  0.81403703  0.29053645  0.78525420    -0.74400
O1846       O  0.76178397  0.23620296  0.71383554    -0.74400
O1847       O  0.81504449  0.28974113  0.71369029    -0.74400
O1848       O  0.76121799  0.23728129  0.78545730    -0.74500
Ni1849     Ni  0.76210202  0.28912697  0.74985431     1.25400
Ni1850     Ni  0.78890720  0.26256494  0.74964418     1.25400
C1851       C  0.73920219  0.24007029  0.79635770     0.87800
C1852       C  0.81221646  0.31185668  0.70357366     0.87700
C1853       C  0.73970812  0.23904000  0.70364279     0.87800
C1854       C  0.81104562  0.31246221  0.79611604     0.87900
C1855       C  0.66673178  0.08302323  0.82452088     0.23600
C1856       C  0.69282523  0.08208369  0.83225479    -0.24500
C1857       C  0.71932391  0.10860592  0.84112935     0.18600
C1858       C  0.71969948  0.13579172  0.84230123     0.23600
C1859       C  0.69354959  0.13668497  0.83467712    -0.24400
C1860       C  0.66708504  0.11016317  0.82578443     0.18500
F1861       F  0.64183139  0.11071001  0.81717392    -0.14400
F1862       F  0.64115795  0.05782041  0.81470018    -0.16700
F1863       F  0.74530626  0.16104656  0.85192712    -0.16700
F1864       F  0.74454179  0.10800869  0.84980861    -0.14400
C1865       C  0.96373084  0.37449003  0.86016912     0.23600
C1866       C  0.96854366  0.35666040  0.83567305    -0.24500
C1867       C  0.94559274  0.33853932  0.81155520     0.18600
C1868       C  0.91867727  0.33863347  0.81154617     0.23600
C1869       C  0.91404164  0.35682937  0.83570510    -0.24400
C1870       C  0.93682103  0.37456289  0.86019674     0.18500
F1871       F  0.93305415  0.39174234  0.88473771    -0.14400
F1872       F  0.98484501  0.39162149  0.88467811    -0.16700
F1873       F  0.89752126  0.32135335  0.78714789    -0.16700
F1874       F  0.94931137  0.32120453  0.78718894    -0.14400
C1875       C  0.74966466  0.27595119  0.99680620     0.23600
C1876       C  0.74872816  0.24839042  0.50000533    -0.24500
C1877       C  0.77600308  0.24868690  0.50365765     0.18600
C1878       C  0.80309916  0.27576103  0.50423064     0.23600
C1879       C  0.80398347  0.30363241  0.00106318    -0.24400
C1880       C  0.77661819  0.30311528  0.99752672     0.18500
F1881       F  0.77573878  0.32892917  0.99562629    -0.14400
F1882       F  0.72375620  0.27655405  0.99427569    -0.16700
F1883       F  0.82892532  0.27500658  0.50690643    -0.16700
F1884       F  0.77665025  0.22276147  0.50584364    -0.14400
C1885       C  0.88615054  0.44355850  0.66342913     0.23600
C1886       C  0.85905233  0.41608817  0.66611163    -0.24500
C1887       C  0.83194022  0.41625181  0.66841430     0.18600
C1888       C  0.83193635  0.44325245  0.66822847     0.23600
C1889       C  0.85903672  0.47070088  0.66574452    -0.24400
C1890       C  0.88613664  0.47055377  0.66323526     0.18500
F1891       F  0.91283163  0.49656756  0.66158046    -0.14400
F1892       F  0.91286907  0.44449374  0.66195429    -0.16700
F1893       F  0.80524262  0.44237786  0.66961075    -0.16700
F1894       F  0.80523029  0.39025921  0.67000130    -0.14400
C1895       C  0.61874298  0.18517591  0.63341724     0.23600
C1896       C  0.63667883  0.19408799  0.66425680    -0.24500
C1897       C  0.62779243  0.20400107  0.69428968     0.18600
C1898       C  0.60129091  0.20488079  0.69356334     0.23600
C1899       C  0.58325306  0.19579044  0.66282629    -0.24400
C1900       C  0.59220405  0.18606042  0.63269209     0.18500
F1901       F  0.57565997  0.17815668  0.60225743    -0.14400
F1902       F  0.62733238  0.17643681  0.60365408    -0.16700
F1903       F  0.59272718  0.21358529  0.72338617    -0.16700
F1904       F  0.64424642  0.21189191  0.72479289    -0.14400
C1905       C  0.00054624  0.24965390  0.00826111     0.23600
C1906       C  0.52724703  0.24922680  0.50243836    -0.24500
C1907       C  0.55383192  0.27670567  0.49695682     0.18600
C1908       C  0.55340065  0.30349635  0.49667170     0.23600
C1909       C  0.52678159  0.30390185  0.00195473    -0.24400
C1910       C  0.00015647  0.27644008  0.00802761     0.18500
F1911       F  0.97353882  0.27525047  0.01296263    -0.14400
F1912       F  0.97426142  0.22376150  0.01370277    -0.16700
F1913       F  0.57968034  0.32950954  0.49179070    -0.16700
F1914       F  0.58049349  0.27788018  0.49259008    -0.14400
C1915       C  0.77546024  0.05232098  0.50355069     0.23600
C1916       C  0.74774236  0.02429955  0.00280199    -0.24500
C1917       C  0.74861195  0.49828822  0.99693573     0.18600
C1918       C  0.77571946  0.49849014  0.99624945     0.23600
C1919       C  0.80291443  0.02554048  0.49997840    -0.24400
C1920       C  0.80255396  0.05254328  0.50266309     0.18500
F1921       F  0.82844731  0.07937952  0.50346795    -0.14400
F1922       F  0.77618474  0.07894659  0.50530391    -0.16700
F1923       F  0.77501993  0.47190034  0.99386798    -0.16700
F1924       F  0.72268923  0.47151447  0.99528236    -0.14400
C1925       C  0.94233586  0.08130186  0.82594076     0.23600
C1926       C  0.91541769  0.08113250  0.83209057    -0.24500
C1927       C  0.91607448  0.10832471  0.83792823     0.18600
C1928       C  0.94325029  0.13531137  0.83761188     0.23600
C1929       C  0.97021180  0.13548526  0.83179461    -0.24400
C1930       C  0.96956842  0.10829684  0.82590765     0.18500
F1931       F  0.99519815  0.10795740  0.81900640    -0.14400
F1932       F  0.94217987  0.05542588  0.81890073    -0.16700
F1933       F  0.94328447  0.16120098  0.84411346    -0.16700
F1934       F  0.89049551  0.10869114  0.84511562    -0.14400
C1935       C  0.60213143  0.42401061  0.69781610     0.23600
C1936       C  0.58190137  0.41640299  0.66925616    -0.24500
C1937       C  0.58919321  0.43636756  0.64040079     0.18600
C1938       C  0.61626028  0.46342843  0.64006445     0.23600
C1939       C  0.63651119  0.47101442  0.66858606    -0.24400
C1940       C  0.62920117  0.45110193  0.69749338     0.18500
F1941       F  0.64786933  0.45819657  0.72595810    -0.14400
F1942       F  0.59539373  0.40562065  0.72655160    -0.16700
F1943       F  0.62301384  0.48177092  0.61127556    -0.16700
F1944       F  0.57055334  0.42932475  0.61191748    -0.14400
C1945       C  0.55393905  0.88802936  0.16832907     0.80300
N1946       N  0.55201293  0.86354183  0.18395185    -0.78000
C1947       C  0.52595240  0.83701860  0.18406281     0.82700
N1948       N  0.00113275  0.83478078  0.16808512    -0.78000
C1949       C  0.00307247  0.85960114  0.15222159     0.82800
N1950       N  0.52946994  0.88591469  0.15247907    -0.79700
C1951       C  0.66524633  0.49932621  0.16906582     0.80300
N1952       N  0.68974163  0.50127095  0.18457263    -0.78000
C1953       C  0.71625366  0.52734584  0.18452326     0.82700
N1954       N  0.71839224  0.55215258  0.16828810    -0.78000
C1955       C  0.69351982  0.55011060  0.15244405     0.82800
N1956       N  0.66731298  0.52376665  0.15317594    -0.79700
C1957       C  0.49895712  0.66371143  0.32977130     0.80300
N1958       N  0.52341499  0.66550259  0.34530244    -0.78000
C1959       C  0.54963206  0.69191707  0.34672333     0.82700
N1960       N  0.55154484  0.71698057  0.33156681    -0.78000
C1961       C  0.52681481  0.71504977  0.31555045     0.82800
N1962       N  0.50075382  0.68850992  0.31522811    -0.79700
C1963       C  0.88711155  0.55252921  0.33234152     0.80300
N1964       N  0.88530770  0.52789046  0.34741220    -0.78000
C1965       C  0.85878794  0.00206269  0.34858774     0.82700
N1966       N  0.83372833  0.00036008  0.33372467    -0.78000
C1967       C  0.83576674  0.52489783  0.31844754     0.82800
N1968       N  0.86232078  0.55092843  0.31820008    -0.79700
O1969       O  0.78926262  0.99995583  0.28632027    -0.74400
O1970       O  0.73763882  0.50283496  0.21550439    -0.74400
O1971       O  0.79054835  0.50265879  0.21533894    -0.74500
O1972       O  0.73616223  0.00017538  0.28590663    -0.74500
O1973       O  0.76139400  0.54962834  0.28776312    -0.74400
O1974       O  0.81582623  0.55267104  0.21606402    -0.74400
O1975       O  0.76276604  0.55284493  0.21631052    -0.74400
O1976       O  0.81429605  0.54943024  0.28766088    -0.74500
Ni1977     Ni  0.76243189  0.49934939  0.25102325     1.25400
Ni1978     Ni  0.78948070  0.55291130  0.25214738     1.25400
C1979       C  0.81123019  0.52423010  0.29767124     0.87800
C1980       C  0.74067852  0.52803661  0.20554137     0.87700
C1981       C  0.81274225  0.52782203  0.20509091     0.87800
C1982       C  0.73897843  0.52450240  0.29762808     0.87900
O1983       O  0.55040859  0.76254320  0.21340765    -0.74400
O1984       O  0.55248450  0.81549267  0.28672521    -0.74400
O1985       O  0.55262638  0.76226145  0.28506090    -0.74500
O1986       O  0.55023890  0.81546289  0.21519821    -0.74500
O1987       O  0.00025429  0.79017233  0.21535555    -0.74400
O1988       O  0.50265034  0.73703201  0.28500407    -0.74400
O1989       O  0.50250934  0.79002410  0.28680470    -0.74400
O1990       O  0.50042925  0.73723873  0.21343680    -0.74500
Ni1991     Ni  0.55322635  0.78983719  0.24998247     1.25400
Ni1992     Ni  0.49969774  0.76273648  0.25029684     1.25400
C1993       C  0.52538379  0.74056508  0.20252411     0.87800
C1994       C  0.52748834  0.81223545  0.29738925     0.87700
C1995       C  0.52770043  0.73988384  0.29512818     0.87800
C1996       C  0.52516068  0.81251344  0.20500456     0.87900
C1997       C  0.83180588  0.52594640  0.99890958     0.80300
N1998       N  0.83351152  0.50292165  0.48436487    -0.78000
C1999       C  0.85979293  0.50299464  0.48375682     0.82700
N2000       N  0.88481274  0.52623410  0.99946503    -0.78000
C2001       C  0.88264435  0.54887752  0.01551053     0.82800
N2002       N  0.85622439  0.54847531  0.01486447    -0.79700
C2003       C  0.71917676  0.52455961  0.50233999     0.80300
N2004       N  0.69468110  0.50230902  0.48613190    -0.78000
C2005       C  0.66857083  0.50256384  0.48491344     0.82700
N2006       N  0.66684603  0.52557318  0.50061767    -0.78000
C2007       C  0.69186170  0.54816605  0.01692615     0.82800
N2008       N  0.71782129  0.54765581  0.01672738    -0.79700
C2009       C  0.52737436  0.72063813  0.00114166     0.80300
N2010       N  0.54984049  0.71872982  0.48490485    -0.78000
C2011       C  0.54951247  0.69229910  0.48349522     0.82700
N2012       N  0.52628157  0.66720461  0.99976533    -0.78000
C2013       C  0.50373819  0.66937605  0.01602154     0.82800
N2014       N  0.50460742  0.69599337  0.01639498    -0.79700
C2015       C  0.52627838  0.83207529  0.50138851     0.80300
N2016       N  0.50373011  0.83384249  0.01646104    -0.78000
C2017       C  0.50330657  0.85988483  0.01658684     0.82700
N2018       N  0.52576405  0.88471775  0.50066860    -0.78000
C2019       C  0.54842380  0.88278818  0.48427751     0.82800
N2020       N  0.54837041  0.85654422  0.48497055    -0.79700
C2021       C  0.55442695  0.69566262  0.16158961     0.80300
N2022       N  0.55253853  0.71795028  0.17802724    -0.78000
C2023       C  0.52618497  0.71763949  0.17997970     0.82700
N2024       N  0.00102499  0.69439045  0.16510975    -0.78000
C2025       C  0.00289187  0.67181743  0.14847070     0.82800
N2026       N  0.52950143  0.67281938  0.14694145    -0.79700
C2027       C  0.66539575  0.69373715  0.16424388     0.80300
N2028       N  0.66725848  0.67096266  0.14914513    -0.78000
C2029       C  0.69312053  0.67025028  0.14986102     0.82700
N2030       N  0.71780195  0.69285805  0.16629531    -0.78000
C2031       C  0.71596415  0.71585280  0.18179549     0.82800
N2032       N  0.68983616  0.71600284  0.18047662    -0.79700
O2033       O  0.66917262  0.57110029  0.12023634    -0.74400
O2034       O  0.66630780  0.62223248  0.04768071    -0.74400
O2035       O  0.66634903  0.56899506  0.04862776    -0.74500
O2036       O  0.66889477  0.62403295  0.11920940    -0.74500
O2037       O  0.71887305  0.64937598  0.11875949    -0.74400
O2038       O  0.71632392  0.59411728  0.04833611    -0.74400
O2039       O  0.71627815  0.64721877  0.04718849    -0.74400
O2040       O  0.71914794  0.59629736  0.11990717    -0.74500
Ni2041     Ni  0.66590859  0.59567941  0.08410535     1.25400
Ni2042     Ni  0.71942899  0.62264697  0.08338267     1.25400
C2043       C  0.69429963  0.57428586  0.13071656     0.87800
C2044       C  0.69120628  0.64422000  0.03685672     0.87700
C2045       C  0.69121492  0.57183602  0.03815902     0.87800
C2046       C  0.69394422  0.64644336  0.12919422     0.87900
C2047       C  0.85976623  0.88782059  0.16681318     0.80300
N2048       N  0.88249127  0.88590399  0.15165960    -0.78000
C2049       C  0.88263055  0.85972604  0.15141802     0.82700
N2050       N  0.85951335  0.83482356  0.16700940    -0.78000
C2051       C  0.83653394  0.83670394  0.18251174     0.82800
N2052       N  0.83692687  0.86313845  0.18209013    -0.79700
C2053       C  0.86006820  0.99984991  0.16756189     0.80300
N2054       N  0.88099452  0.52381991  0.15050080    -0.78000
C2055       C  0.88139635  0.55024171  0.15066548     0.82700
N2056       N  0.85879539  0.55214768  0.16720054    -0.78000
C2057       C  0.83606961  0.52717002  0.18323048     0.82800
N2058       N  0.83619818  0.50100205  0.18231810    -0.79700
O2059       O  0.95652934  0.83365954  0.12057264    -0.74400
O2060       O  0.90471473  0.83595620  0.04871632    -0.74400
O2061       O  0.95770967  0.83574850  0.04896466    -0.74500
O2062       O  0.90336133  0.83382738  0.12030434    -0.74500
O2063       O  0.92866709  0.88383643  0.12012621    -0.74400
O2064       O  0.98294470  0.88575511  0.04867368    -0.74400
O2065       O  0.92982990  0.88596452  0.04854451    -0.74400
O2066       O  0.98167100  0.88367043  0.12030050    -0.74500
Ni2067     Ni  0.92968152  0.83302020  0.08451635     1.25400
Ni2068     Ni  0.95668410  0.88657705  0.08456278     1.25400
C2069       C  0.97866801  0.85863089  0.13087519     0.87800
C2070       C  0.90772881  0.86101467  0.03814124     0.87700
C2071       C  0.97991459  0.86075891  0.03833547     0.87800
C2072       C  0.90633262  0.85882570  0.13051729     0.87900
O2073       O  0.98061608  0.62506139  0.11914528    -0.74400
O2074       O  0.92870317  0.56958604  0.04822548    -0.74400
O2075       O  0.98225969  0.62280286  0.04786608    -0.74500
O2076       O  0.92733590  0.57188482  0.11974425    -0.74500
O2077       O  0.90228418  0.59664151  0.11836899    -0.74400
O2078       O  0.95751486  0.64787637  0.04661627    -0.74400
O2079       O  0.90409618  0.59478345  0.04680863    -0.74400
O2080       O  0.95582875  0.65009099  0.11794421    -0.74500
Ni2081     Ni  0.95557336  0.59642191  0.08396954     1.25400
Ni2082     Ni  0.92902705  0.62322205  0.08224544     1.25400
C2083       C  0.97794145  0.64750687  0.12858105     0.87800
C2084       C  0.90689947  0.57249336  0.03703413     0.87700
C2085       C  0.97971325  0.64487640  0.03693339     0.87800
C2086       C  0.90510023  0.57475055  0.12951266     0.87900
C2087       C  0.72056475  0.71948833  0.99885664     0.80300
N2088       N  0.69586116  0.71801861  0.48310341    -0.78000
C2089       C  0.66933705  0.69192327  0.48291852     0.82700
N2090       N  0.66727834  0.66668604  0.99962076    -0.78000
C2091       C  0.69213235  0.66857944  0.01528864     0.82800
N2092       N  0.71841373  0.69490363  0.01454304    -0.79700
C2093       C  0.83229205  0.83227880  0.50126920     0.80300
N2094       N  0.85705626  0.83380385  0.01598134    -0.78000
C2095       C  0.88338171  0.86009514  0.01664705     0.82700
N2096       N  0.88532858  0.88537607  0.50132681    -0.78000
C2097       C  0.86054536  0.88327366  0.48516536     0.82800
N2098       N  0.83441563  0.85681480  0.48551602    -0.79700
C2099       C  0.99760080  0.85720984  0.33590237     0.80300
N2100       N  0.49986673  0.83475846  0.32053158    -0.78000
C2101       C  0.52641446  0.83548219  0.31902715     0.82700
N2102       N  0.55134518  0.85911586  0.33379673    -0.78000
C2103       C  0.54905850  0.88178374  0.34957353     0.82800
N2104       N  0.52228778  0.88057905  0.35020555    -0.79700
C2105       C  0.88587608  0.85735454  0.33597680     0.80300
N2106       N  0.86134821  0.83525274  0.31978894    -0.78000
C2107       C  0.83546255  0.83579282  0.31818567     0.82700
N2108       N  0.83386660  0.85895259  0.33364813    -0.78000
C2109       C  0.85864722  0.88137199  0.35023772     0.82800
N2110       N  0.88434150  0.88035012  0.35095972    -0.79700
O2111       O  0.88321078  0.92758947  0.38114719    -0.74400
O2112       O  0.88580660  0.98275797  0.45183759    -0.74400
O2113       O  0.88614733  0.92962998  0.45274768    -0.74500
O2114       O  0.88307384  0.98068024  0.38022568    -0.74500
O2115       O  0.83310944  0.95569010  0.38096580    -0.74400
O2116       O  0.83617902  0.90436126  0.45312780    -0.74400
O2117       O  0.83583721  0.95726810  0.45249723    -0.74400
O2118       O  0.83323732  0.90248245  0.38152704    -0.74500
Ni2119     Ni  0.88633932  0.95607078  0.41631452     1.25400
Ni2120     Ni  0.83282935  0.92904902  0.41719218     1.25400
C2121       C  0.85808605  0.90528434  0.37105024     0.87800
C2122       C  0.86087179  0.97970571  0.46247593     0.87700
C2123       C  0.86131653  0.90754246  0.46353908     0.87800
C2124       C  0.85796244  0.97768696  0.37005480     0.87900
C2125       C  0.69211763  0.55323383  0.33280018     0.80300
N2126       N  0.71510636  0.55148505  0.31833287    -0.78000
C2127       C  0.71517198  0.52529243  0.31822994     0.82700
N2128       N  0.69226398  0.00096262  0.33306435    -0.78000
C2129       C  0.66923064  0.00287089  0.34841434     0.82800
N2130       N  0.66902154  0.52861791  0.34772223    -0.79700
C2131       C  0.69378778  0.66508446  0.33482753     0.80300
N2132       N  0.67069432  0.66660474  0.34940712    -0.78000
C2133       C  0.67013580  0.69253599  0.34903756     0.82700
N2134       N  0.69297995  0.71740226  0.33306800    -0.78000
C2135       C  0.71623291  0.71577655  0.31794507     0.82800
N2136       N  0.71649654  0.68967073  0.31931794    -0.79700
O2137       O  0.64903969  0.71818957  0.37961425    -0.74400
O2138       O  0.59487815  0.71625949  0.45097385    -0.74400
O2139       O  0.64789046  0.71614108  0.45112507    -0.74500
O2140       O  0.59576079  0.71798413  0.37925250    -0.74500
O2141       O  0.57085119  0.66797927  0.37946230    -0.74400
O2142       O  0.62268162  0.66613119  0.45157995    -0.74400
O2143       O  0.56953405  0.66625103  0.45120795    -0.74400
O2144       O  0.62401328  0.66817215  0.38006449    -0.74500
Ni2145     Ni  0.62275885  0.71891546  0.41536610     1.25400
Ni2146     Ni  0.59585108  0.66535498  0.41544889     1.25400
C2147       C  0.64624547  0.69323631  0.36961522     0.87800
C2148       C  0.57268830  0.69128689  0.46163436     0.87700
C2149       C  0.64488567  0.69109832  0.46175304     0.87800
C2150       C  0.57381745  0.69295397  0.36869295     0.87900
O2151       O  0.56909838  0.92922440  0.45216031    -0.74400
O2152       O  0.62360002  0.98134704  0.38041596    -0.74400
O2153       O  0.57047129  0.92792910  0.38054957    -0.74500
O2154       O  0.62259273  0.98263245  0.45216815    -0.74500
O2155       O  0.64723308  0.95745930  0.45249200    -0.74400
O2156       O  0.59565160  0.90328369  0.38067566    -0.74400
O2157       O  0.64876964  0.95670006  0.38084496    -0.74400
O2158       O  0.59400675  0.90431719  0.45219168    -0.74500
Ni2159     Ni  0.59555953  0.95619447  0.41616031     1.25400
Ni2160     Ni  0.62230221  0.92958286  0.41670065     1.25400
C2161       C  0.57189904  0.90717702  0.46265593     0.87800
C2162       C  0.64575814  0.97855645  0.37005142     0.87700
C2163       C  0.57351133  0.90587096  0.37025920     0.87800
C2164       C  0.64443698  0.97958245  0.46293026     0.87900
O2165       O  0.73629383  0.76197831  0.28558909    -0.73500
O2166       O  0.79058813  0.81480294  0.21408972    -0.74400
O2167       O  0.73741835  0.76135297  0.21393070    -0.74500
O2168       O  0.78937289  0.81554719  0.28572743    -0.74500
O2169       O  0.81435100  0.79070421  0.28535541    -0.74400
O2170       O  0.76232710  0.73644120  0.21368339    -0.74400
O2171       O  0.81558561  0.78998267  0.21375251    -0.74400
O2172       O  0.76150156  0.73736724  0.28530632    -0.74500
Ni2173     Ni  0.76251062  0.78929254  0.24967454     1.25400
Ni2174     Ni  0.78933010  0.76275195  0.24962057     1.25400
C2175       C  0.73941771  0.74010279  0.29606419     0.87800
C2176       C  0.81277008  0.81209316  0.20357354     0.87700
C2177       C  0.74028494  0.73928758  0.20335210     0.87800
C2178       C  0.81133476  0.81263086  0.29617563     0.87900
C2179       C  0.66643062  0.58271143  0.32573835     0.23600
C2180       C  0.69262322  0.58184984  0.33309885    -0.24500
C2181       C  0.71928406  0.60851632  0.34111293     0.18600
C2182       C  0.71972581  0.63574270  0.34180114     0.23600
C2183       C  0.69349034  0.63656869  0.33452683    -0.24400
C2184       C  0.66684947  0.60989691  0.32653396     0.18500
F2185       F  0.64144289  0.61030167  0.31838564    -0.14400
F2186       F  0.64067796  0.55738000  0.31669835    -0.16700
F2187       F  0.74550089  0.66111646  0.35067359    -0.16700
F2188       F  0.74464215  0.60805768  0.34940029    -0.14400
C2189       C  0.96396623  0.87460224  0.36087328     0.23600
C2190       C  0.96861392  0.85639028  0.33679336    -0.24500
C2191       C  0.94539718  0.83775494  0.31323742     0.18600
C2192       C  0.91847965  0.83784560  0.31320187     0.23600
C2193       C  0.91406391  0.85654275  0.33678428    -0.24400
C2194       C  0.93703285  0.87465697  0.36088971     0.18500
F2195       F  0.93347349  0.89227732  0.38496756    -0.14400
F2196       F  0.98530570  0.89221680  0.38490769    -0.16700
F2197       F  0.89711850  0.82007560  0.28926961    -0.16700
F2198       F  0.94885001  0.81992359  0.28937166    -0.14400
C2199       C  0.74936476  0.77599424  0.49633763     0.23600
C2200       C  0.74925641  0.74812589  0.99891189    -0.24500
C2201       C  0.77659840  0.74847314  0.00180820     0.18600
C2202       C  0.80366561  0.77559269  0.00226384     0.23600
C2203       C  0.80370222  0.80354563  0.50074313    -0.24400
C2204       C  0.77637320  0.80312388  0.49721124     0.18500
F2205       F  0.77558585  0.82899285  0.49547745    -0.14400
F2206       F  0.72348975  0.77666629  0.49383214    -0.16700
F2207       F  0.82957425  0.77493464  0.00424073    -0.16700
F2208       F  0.77731280  0.72256042  0.00335432    -0.14400
C2209       C  0.88696954  0.94393834  0.16359384     0.23600
C2210       C  0.85988254  0.91650196  0.16677733    -0.24500
C2211       C  0.83287776  0.91677512  0.17006613     0.18600
C2212       C  0.83295772  0.94381369  0.17035779     0.23600
C2213       C  0.86003613  0.97123541  0.16733435    -0.24400
C2214       C  0.88704295  0.97098954  0.16389158     0.18500
F2215       F  0.91374562  0.99695216  0.16169152    -0.14400
F2216       F  0.91360723  0.94479120  0.16106775    -0.16700
F2217       F  0.80631782  0.94297399  0.17269554    -0.16700
F2218       F  0.80614652  0.89084302  0.17213468    -0.14400
C2219       C  0.60981942  0.66821873  0.15497243     0.23600
C2220       C  0.63709490  0.69439311  0.16286686    -0.24500
C2221       C  0.63699371  0.72122034  0.16938565     0.18600
C2222       C  0.61029675  0.72177648  0.16838281     0.23600
C2223       C  0.58297720  0.69549737  0.16100618    -0.24400
C2224       C  0.58314825  0.66877650  0.15396278     0.18500
F2225       F  0.55740942  0.64275004  0.14695827    -0.14400
F2226       F  0.60858828  0.64167370  0.14908154    -0.16700
F2227       F  0.61144231  0.74828785  0.17423123    -0.16700
F2228       F  0.66277114  0.74722081  0.17632003    -0.14400
C2229       C  0.00071094  0.74950259  0.50821021     0.23600
C2230       C  0.52726579  0.74920678  0.00131675    -0.24500
C2231       C  0.55403154  0.77672020  0.99687377     0.18600
C2232       C  0.55367738  0.80356439  0.99654447     0.23600
C2233       C  0.52674599  0.80367705  0.50181388    -0.24400
C2234       C  0.00034630  0.77629603  0.50810716     0.18500
F2235       F  0.97373166  0.77509935  0.51309583    -0.14400
F2236       F  0.97440511  0.72360178  0.51352555    -0.16700
F2237       F  0.58009939  0.82963396  0.99281583    -0.16700
F2238       F  0.58076138  0.77785357  0.99364663    -0.14400
C2239       C  0.77566242  0.55245252  0.00281474     0.23600
C2240       C  0.74779266  0.52457041  0.50232097    -0.24500
C2241       C  0.74840440  0.99808159  0.49884542     0.18600
C2242       C  0.77552713  0.99829855  0.49803793     0.23600
C2243       C  0.80309145  0.52568495  0.99895655    -0.24400
C2244       C  0.80273724  0.55265940  0.00208198     0.18500
F2245       F  0.82862918  0.57946788  0.00352232    -0.14400
F2246       F  0.77640404  0.57906404  0.00509419    -0.16700
F2247       F  0.77485056  0.97169490  0.49628021    -0.16700
F2248       F  0.72247816  0.97128018  0.49781781    -0.14400
C2249       C  0.94218603  0.58123782  0.32195461     0.23600
C2250       C  0.91569555  0.58086990  0.33140498    -0.24500
C2251       C  0.91665730  0.60785254  0.33973902     0.18600
C2252       C  0.94379696  0.63486684  0.33880122     0.23600
C2253       C  0.97036888  0.63521915  0.32981177    -0.24400
C2254       C  0.96939764  0.60826036  0.32126908     0.18500
F2255       F  0.99464194  0.60823426  0.31124511    -0.14400
F2256       F  0.94153581  0.55556141  0.31234328    -0.16700
F2257       F  0.94428101  0.66057044  0.34786068    -0.16700
F2258       F  0.89146494  0.60792184  0.34993896    -0.14400
C2259       C  0.60219056  0.92419761  0.19760186     0.23600
C2260       C  0.58236467  0.91668078  0.16860991    -0.24500
C2261       C  0.58996190  0.93680063  0.13988533     0.18600
C2262       C  0.61693518  0.96394403  0.14011610     0.23600
C2263       C  0.63677977  0.97142679  0.16906574    -0.24400
C2264       C  0.62916587  0.95136902  0.19784080     0.18500
F2265       F  0.64742919  0.95840089  0.22669728    -0.14400
F2266       F  0.59512962  0.90563447  0.22621646    -0.16700
F2267       F  0.62401911  0.98247974  0.11146410    -0.16700
F2268       F  0.57172863  0.92984123  0.11101197    -0.14400
C2269       C  0.55358616  0.88696269  0.66858652     0.80300
N2270       N  0.55161963  0.86245429  0.68422468    -0.78000
C2271       C  0.52547555  0.83598223  0.68451213     0.82700
N2272       N  0.00068009  0.83405953  0.66841157    -0.78000
C2273       C  0.00264604  0.85890644  0.65257290     0.82800
N2274       N  0.52907825  0.88492725  0.65297549    -0.79700
C2275       C  0.66510446  0.49950093  0.66813978     0.80300
N2276       N  0.68971334  0.50146565  0.68335872    -0.78000
C2277       C  0.71621908  0.52755626  0.68323051     0.82700
N2278       N  0.71822852  0.55237277  0.66719915    -0.78000
C2279       C  0.69326375  0.55033109  0.65161587     0.82800
N2280       N  0.66706106  0.52395813  0.65240825    -0.79700
C2281       C  0.49872697  0.66306753  0.83071597     0.80300
N2282       N  0.52323349  0.66487560  0.84614182    -0.78000
C2283       C  0.54941150  0.69134862  0.84761295     0.82700
N2284       N  0.55122520  0.71640396  0.83256806    -0.78000
C2285       C  0.52644372  0.71443962  0.81666128     0.82800
N2286       N  0.50042885  0.68786684  0.81632303    -0.79700
C2287       C  0.88687370  0.55220437  0.83128845     0.80300
N2288       N  0.88499085  0.52756685  0.84639682    -0.78000
C2289       C  0.85840207  0.00188985  0.84886393     0.82700
N2290       N  0.83347371  0.00009914  0.83347651    -0.78000
C2291       C  0.83555294  0.52469007  0.81726965     0.82800
N2292       N  0.86214434  0.55069226  0.81707978    -0.79700
O2293       O  0.78911600  0.99958807  0.78568280    -0.74400
O2294       O  0.73771955  0.50302980  0.71394011    -0.74400
O2295       O  0.79065277  0.50283587  0.71395719    -0.74500
O2296       O  0.73595157  0.99974842  0.78524635    -0.74500
O2297       O  0.76127720  0.54962654  0.78639409    -0.74400
O2298       O  0.81596013  0.55284185  0.71485097    -0.74400
O2299       O  0.76283297  0.55303263  0.71493266    -0.74400
O2300       O  0.81419408  0.54936706  0.78644401    -0.74500
Ni2301     Ni  0.76240693  0.49943920  0.74952807     1.25400
Ni2302     Ni  0.78947669  0.55298878  0.75085031     1.25400
C2303       C  0.81107440  0.52412385  0.79640034     0.87800
C2304       C  0.74073568  0.52824509  0.70409518     0.87700
C2305       C  0.81293886  0.52801037  0.70389612     0.87800
C2306       C  0.73883235  0.52448139  0.79617583     0.87900
O2307       O  0.54993139  0.76153111  0.71442144    -0.74400
O2308       O  0.55202963  0.81481154  0.78717409    -0.74400
O2309       O  0.55217699  0.76157544  0.78604493    -0.74500
O2310       O  0.54973718  0.81441972  0.71570688    -0.74500
O2311       O  0.99980407  0.78935206  0.71560060    -0.74400
O2312       O  0.50220154  0.73632354  0.78603447    -0.74400
O2313       O  0.50205331  0.78939816  0.78725648    -0.74400
O2314       O  0.49995579  0.73610672  0.71440796    -0.74500
Ni2315     Ni  0.55274201  0.78896493  0.75072831     1.25400
Ni2316     Ni  0.49921572  0.76183596  0.75104029     1.25400
C2317       C  0.52495438  0.73949329  0.70354709     0.87800
C2318       C  0.52705612  0.81171331  0.79763460     0.87700
C2319       C  0.52726739  0.73922409  0.79619187     0.87800
C2320       C  0.52466137  0.81145139  0.70547014     0.87900
C2321       C  0.83143641  0.52537745  0.50004593     0.80300
N2322       N  0.83396652  0.50355729  0.98324323    -0.78000
C2323       C  0.86014319  0.50345186  0.98313373     0.82700
N2324       N  0.88460780  0.52599311  0.49954214    -0.78000
C2325       C  0.88253819  0.54869231  0.51552406     0.82800
N2326       N  0.85604302  0.54813153  0.51541994    -0.79700
C2327       C  0.71967426  0.52520840  0.00070500     0.80300
N2328       N  0.69514686  0.50300484  0.98454086    -0.78000
C2329       C  0.66891610  0.50301227  0.98399426     0.82700
N2330       N  0.66708062  0.52572430  0.00036072    -0.78000
C2331       C  0.69158208  0.54806890  0.51717449     0.82800
N2332       N  0.71740280  0.54729836  0.51767317    -0.79700
C2333       C  0.52756646  0.72076016  0.50120011     0.80300
N2334       N  0.54969048  0.71851826  0.98510483    -0.78000
C2335       C  0.54939240  0.69208931  0.98409276     0.82700
N2336       N  0.52642233  0.66730909  0.49900379    -0.78000
C2337       C  0.50391170  0.66937966  0.51546955     0.82800
N2338       N  0.50481072  0.69599946  0.51625517    -0.79700
C2339       C  0.52615079  0.83192037  0.00042168     0.80300
N2340       N  0.50385200  0.83399120  0.51742334    -0.78000
C2341       C  0.50331332  0.85997326  0.51740110     0.82700
N2342       N  0.52582669  0.88464727  0.99999200    -0.78000
C2343       C  0.54847191  0.88270328  0.98361783     0.82800
N2344       N  0.54834504  0.85641988  0.98417024    -0.79700
C2345       C  0.55479249  0.69555125  0.66215904     0.80300
N2346       N  0.55249878  0.71733993  0.67919313    -0.78000
C2347       C  0.52602647  0.71674677  0.68092385     0.82700
N2348       N  0.00118452  0.69389360  0.66492466    -0.78000
C2349       C  0.00348572  0.67173911  0.64775153     0.82800
N2350       N  0.53029067  0.67278867  0.64668765    -0.79700
C2351       C  0.66494509  0.69362509  0.66470413     0.80300
N2352       N  0.66677394  0.67108964  0.64891163    -0.78000
C2353       C  0.69268821  0.67044817  0.64943384     0.82700
N2354       N  0.71733547  0.69292211  0.66612293    -0.78000
C2355       C  0.71544818  0.71572000  0.68214135     0.82800
N2356       N  0.68925357  0.71575810  0.68123990    -0.79700
O2357       O  0.66884798  0.57139084  0.61962367    -0.74400
O2358       O  0.66607157  0.62256616  0.54703974    -0.74400
O2359       O  0.66609148  0.56928703  0.54807977    -0.74500
O2360       O  0.66853701  0.62433605  0.61855699    -0.74500
O2361       O  0.71851425  0.64970535  0.61817834    -0.74400
O2362       O  0.71606747  0.59439269  0.54786041    -0.74400
O2363       O  0.71604379  0.64753789  0.54661913    -0.74400
O2364       O  0.71882465  0.59663004  0.61935467    -0.74500
Ni2365     Ni  0.66561374  0.59599371  0.58348097     1.25400
Ni2366     Ni  0.71913566  0.62297161  0.58283399     1.25400
C2367       C  0.69397797  0.57456192  0.63006964     0.87800
C2368       C  0.69099217  0.64456130  0.53626966     0.87700
C2369       C  0.69096218  0.57203099  0.53780898     0.87800
C2370       C  0.69356483  0.64674509  0.62858834     0.87900
C2371       C  0.85985454  0.88770118  0.66772983     0.80300
N2372       N  0.88256259  0.88576874  0.65256911    -0.78000
C2373       C  0.88257340  0.85952869  0.65212582     0.82700
N2374       N  0.85934708  0.83459087  0.66751316    -0.78000
C2375       C  0.83639224  0.83650945  0.68302115     0.82800
N2376       N  0.83691432  0.86299680  0.68280537    -0.79700
C2377       C  0.85975495  0.99941809  0.66708213     0.80300
N2378       N  0.88163994  0.52393424  0.65038698    -0.78000
C2379       C  0.88202676  0.55035847  0.65026616     0.82700
N2380       N  0.85929740  0.55228843  0.66643986    -0.78000
C2381       C  0.83645152  0.52734926  0.68238558     0.82800
N2382       N  0.83658635  0.50118279  0.68173608    -0.79700
O2383       O  0.95614629  0.83320141  0.62074892    -0.74400
O2384       O  0.90454020  0.83617297  0.54908454    -0.74400
O2385       O  0.95749975  0.83577900  0.54913926    -0.74500
O2386       O  0.90312379  0.83362905  0.62064527    -0.74500
O2387       O  0.92858814  0.88363762  0.62086196    -0.74400
O2388       O  0.98283697  0.88578279  0.54923816    -0.74400
O2389       O  0.92977059  0.88617772  0.54929823    -0.74400
O2390       O  0.98141637  0.88321147  0.62085363    -0.74500
Ni2391     Ni  0.92942347  0.83291654  0.58475135     1.25400
Ni2392     Ni  0.95656435  0.88646857  0.58521921     1.25400
C2393       C  0.97829862  0.85807926  0.63124844     0.87800
C2394       C  0.90759694  0.86131324  0.53878561     0.87700
C2395       C  0.97979230  0.86082337  0.53872156     0.87800
C2396       C  0.90620407  0.85861407  0.63111152     0.87900
O2397       O  0.98130539  0.62508358  0.61805361    -0.74400
O2398       O  0.92887352  0.56954365  0.54753294    -0.74400
O2399       O  0.98244533  0.62271074  0.54677067    -0.74500
O2400       O  0.92789980  0.57189924  0.61905572    -0.74500
O2401       O  0.90289155  0.59670328  0.61791969    -0.74400
O2402       O  0.95770071  0.64779329  0.54584174    -0.74400
O2403       O  0.90428852  0.59477338  0.54639387    -0.74400
O2404       O  0.95647585  0.65007531  0.61717639    -0.74500
Ni2405     Ni  0.95597755  0.59639206  0.58305960     1.25400
Ni2406     Ni  0.92944454  0.62321558  0.58165179     1.25400
C2407       C  0.97864296  0.64750380  0.62763164     0.87800
C2408       C  0.90699832  0.57243750  0.53660795     0.87700
C2409       C  0.97985712  0.64479553  0.53598883     0.87800
C2410       C  0.90571437  0.57480117  0.62898984     0.87900
C2411       C  0.72038891  0.71994122  0.49861282     0.80300
N2412       N  0.69598537  0.71759049  0.98352933    -0.78000
C2413       C  0.66942588  0.69154686  0.98354587     0.82700
N2414       N  0.66717004  0.66705093  0.49895242    -0.78000
C2415       C  0.69196661  0.66896026  0.51477037     0.82800
N2416       N  0.71821399  0.69532850  0.51424840    -0.79700
C2417       C  0.83256238  0.83167099  0.00015293     0.80300
N2418       N  0.85676253  0.83435508  0.51709594    -0.78000
C2419       C  0.88320006  0.86054530  0.51750786     0.82700
N2420       N  0.88537586  0.88496160  0.00074146    -0.78000
C2421       C  0.86057170  0.88279822  0.98458618     0.82800
N2422       N  0.83455265  0.85624500  0.98466713    -0.79700
C2423       C  0.99772305  0.85779458  0.83438193     0.80300
N2424       N  0.49975019  0.83500051  0.81955932    -0.78000
C2425       C  0.52611949  0.83532099  0.81866862     0.82700
N2426       N  0.55108579  0.85885660  0.83353124    -0.78000
C2427       C  0.54903482  0.88183024  0.84880495     0.82800
N2428       N  0.52244594  0.88101798  0.84883506    -0.79700
C2429       C  0.88570758  0.85743151  0.83571200     0.80300
N2430       N  0.86114121  0.83522523  0.81970587    -0.78000
C2431       C  0.83517584  0.83562171  0.81833627     0.82700
N2432       N  0.83353524  0.85873923  0.83383999    -0.78000
C2433       C  0.85834289  0.88124846  0.85026886     0.82800
N2434       N  0.88411661  0.88037039  0.85077186    -0.79700
O2435       O  0.88289755  0.92747664  0.88109947    -0.74400
O2436       O  0.88561685  0.98246687  0.95209985    -0.74400
O2437       O  0.88601053  0.92936589  0.95262842    -0.74500
O2438       O  0.88268971  0.98051679  0.88047330    -0.74500
O2439       O  0.83272881  0.95550630  0.88134384    -0.74400
O2440       O  0.83604145  0.90402832  0.95316968    -0.74400
O2441       O  0.83565058  0.95692635  0.95293143    -0.74400
O2442       O  0.83292327  0.90231095  0.88163292    -0.74500
Ni2443     Ni  0.88607806  0.95587133  0.91639571     1.25400
Ni2444     Ni  0.83256985  0.92879831  0.91744193     1.25400
C2445       C  0.85776730  0.90514545  0.87107778     0.87800
C2446       C  0.86070056  0.97934152  0.96292705     0.87700
C2447       C  0.86122424  0.90718994  0.96335936     0.87800
C2448       C  0.85755947  0.97751119  0.87037035     0.87900
C2449       C  0.69200368  0.55316417  0.83168910     0.80300
N2450       N  0.71494305  0.55142343  0.81704803    -0.78000
C2451       C  0.71502208  0.52523423  0.81687646     0.82700
N2452       N  0.69206473  0.00061288  0.83228763    -0.78000
C2453       C  0.66906092  0.00255420  0.84764668     0.82800
N2454       N  0.66899245  0.52857243  0.84673506    -0.79700
C2455       C  0.69351349  0.66486594  0.83466488     0.80300
N2456       N  0.67046482  0.66631871  0.84948974    -0.78000
C2457       C  0.66992495  0.69226151  0.84942231     0.82700
N2458       N  0.69272046  0.71719356  0.83348259    -0.78000
C2459       C  0.71592028  0.71561632  0.81812666     0.82800
N2460       N  0.71617711  0.68950761  0.81922398    -0.79700
O2461       O  0.64891665  0.71783903  0.88030305    -0.74400
O2462       O  0.59486179  0.71592241  0.95177348    -0.74400
O2463       O  0.64790989  0.71578888  0.95183861    -0.74500
O2464       O  0.59559788  0.71752506  0.88005985    -0.74500
O2465       O  0.57076353  0.66752227  0.88030467    -0.74400
O2466       O  0.62267071  0.66578307  0.95238727    -0.74400
O2467       O  0.56947974  0.66591820  0.95205543    -0.74400
O2468       O  0.62397057  0.66782338  0.88084191    -0.74500
Ni2469     Ni  0.62269177  0.71854055  0.91612621     1.25400
Ni2470     Ni  0.59580960  0.66498472  0.91627966     1.25400
C2471       C  0.64612502  0.69290003  0.87026790     0.87800
C2472       C  0.57262849  0.69097577  0.96241464     0.87700
C2473       C  0.64491425  0.69074412  0.96248529     0.87800
C2474       C  0.57366449  0.69246367  0.86953216     0.87900
O2475       O  0.56915887  0.92917149  0.95163704    -0.74400
O2476       O  0.62359583  0.98122276  0.87987092    -0.74400
O2477       O  0.57047856  0.92788843  0.88001632    -0.74500
O2478       O  0.62266723  0.98259506  0.95167885    -0.74500
O2479       O  0.64731716  0.95743899  0.95191480    -0.74400
O2480       O  0.59554873  0.90313585  0.88017995    -0.74400
O2481       O  0.64868877  0.95649504  0.88020779    -0.74400
O2482       O  0.59408912  0.90428323  0.95169406    -0.74500
Ni2483     Ni  0.59559960  0.95613508  0.91564453     1.25400
Ni2484     Ni  0.62230270  0.92948562  0.91615148     1.25400
C2485       C  0.57197066  0.90712790  0.96211719     0.87800
C2486       C  0.64566904  0.97833803  0.86940049     0.87700
C2487       C  0.57346283  0.90580247  0.86969881     0.87800
C2488       C  0.64450216  0.97953381  0.96247307     0.87900
O2489       O  0.73596451  0.76186643  0.78584505    -0.73500
O2490       O  0.79034303  0.81463196  0.71435908    -0.74400
O2491       O  0.73707282  0.76124793  0.71420494    -0.74500
O2492       O  0.78907832  0.81537312  0.78597169    -0.74500
O2493       O  0.81402886  0.79050019  0.78556155    -0.74400
O2494       O  0.76188218  0.73623747  0.71393098    -0.74400
O2495       O  0.81523231  0.78970040  0.71399384    -0.74400
O2496       O  0.76115464  0.73723550  0.78554357    -0.74500
Ni2497     Ni  0.76221000  0.78915793  0.74992820     1.25400
Ni2498     Ni  0.78895786  0.76254199  0.74985003     1.25400
C2499       C  0.73908552  0.73998545  0.79630663     0.87800
C2500       C  0.81250762  0.81187076  0.70388152     0.87700
C2501       C  0.73985357  0.73912950  0.70364329     0.87800
C2502       C  0.81103017  0.81243600  0.79639326     0.87900
C2503       C  0.66632141  0.58262890  0.82464789     0.23600
C2504       C  0.69248683  0.58175312  0.83214599    -0.24500
C2505       C  0.71906536  0.60835532  0.84056780     0.18600
C2506       C  0.71946594  0.63555377  0.84147981     0.23600
C2507       C  0.69325740  0.63639171  0.83407240    -0.24400
C2508       C  0.66669792  0.60978678  0.82566993     0.18500
F2509       F  0.64134910  0.61024881  0.81735084    -0.14400
F2510       F  0.64064166  0.55734166  0.81530078    -0.16700
F2511       F  0.74516091  0.66087944  0.85069678    -0.16700
F2512       F  0.74435536  0.60783879  0.84907431    -0.14400
C2513       C  0.96430191  0.87549405  0.85926070     0.23600
C2514       C  0.96883128  0.85719213  0.83518677    -0.24500
C2515       C  0.94545611  0.83839880  0.81190196     0.18600
C2516       C  0.91840220  0.83822392  0.81233842     0.23600
C2517       C  0.91404334  0.85688740  0.83604638    -0.24400
C2518       C  0.93724572  0.87529703  0.85973313     0.18500
F2519       F  0.93378069  0.89291534  0.88390762    -0.14400
F2520       F  0.98584764  0.89338598  0.88293392    -0.16700
F2521       F  0.89680718  0.82016089  0.78880694    -0.16700
F2522       F  0.94884605  0.82059990  0.78792484    -0.14400
C2523       C  0.74961011  0.77549536  0.99638268     0.23600
C2524       C  0.74904178  0.74864180  0.49900454    -0.24500
C2525       C  0.77638289  0.74905798  0.50246779     0.18600
C2526       C  0.80340345  0.77620471  0.50336253     0.23600
C2527       C  0.80398386  0.80294996  0.99977827    -0.24400
C2528       C  0.77665038  0.80258300  0.99680343     0.18500
F2529       F  0.77589715  0.82847515  0.99524023    -0.14400
F2530       F  0.72373984  0.77622716  0.99448280    -0.16700
F2531       F  0.82930571  0.77558014  0.50585390    -0.16700
F2532       F  0.77716381  0.72318481  0.50413939    -0.14400
C2533       C  0.88699475  0.94379134  0.66455003     0.23600
C2534       C  0.85992237  0.91633034  0.66756905    -0.24500
C2535       C  0.83283616  0.91649838  0.67032723     0.18600
C2536       C  0.83280729  0.94346449  0.67011221     0.23600
C2537       C  0.85985749  0.97090619  0.66717812    -0.24400
C2538       C  0.88695743  0.97078145  0.66433471     0.18500
F2539       F  0.91361750  0.99679979  0.66222462    -0.14400
F2540       F  0.91369670  0.94471788  0.66268277    -0.16700
F2541       F  0.80609804  0.94253398  0.67184710    -0.16700
F2542       F  0.80613406  0.89052997  0.67234130    -0.14400
C2543       C  0.61915668  0.68568763  0.63277570     0.23600
C2544       C  0.63683266  0.69420440  0.66383478    -0.24500
C2545       C  0.62759906  0.70358636  0.69403015     0.18600
C2546       C  0.60103844  0.70436344  0.69324474     0.23600
C2547       C  0.58327075  0.69571058  0.66228047    -0.24400
C2548       C  0.59254899  0.68647241  0.63198607     0.18500
F2549       F  0.57626609  0.67895565  0.60136033    -0.14400
F2550       F  0.62806672  0.67742260  0.60288644    -0.16700
F2551       F  0.59213708  0.71252348  0.72323172    -0.16700
F2552       F  0.64375852  0.71102537  0.72474411    -0.14400
C2553       C  0.00016753  0.74916079  0.00589857     0.23600
C2554       C  0.52748819  0.74935623  0.50188193    -0.24500
C2555       C  0.55405172  0.77680952  0.49611615     0.18600
C2556       C  0.55367911  0.80364023  0.49600035     0.23600
C2557       C  0.52655556  0.80351372  0.00078750    -0.24400
C2558       C  0.99981561  0.77596484  0.00555930     0.18500
F2559       F  0.97305491  0.77476352  0.00881748    -0.14400
F2560       F  0.97370062  0.72315006  0.00972437    -0.16700
F2561       F  0.57993703  0.82961057  0.49080358    -0.16700
F2562       F  0.58064004  0.77792530  0.49124982    -0.14400
C2563       C  0.77517727  0.55174701  0.50489325     0.23600
C2564       C  0.74828810  0.52527744  0.00026530    -0.24500
C2565       C  0.74808467  0.99733619  0.99922103     0.18600
C2566       C  0.77520882  0.99754020  0.99852630     0.23600
C2567       C  0.80265969  0.52503208  0.50067556    -0.24400
C2568       C  0.80226501  0.55198165  0.50399430     0.18500
F2569       F  0.82812774  0.57882000  0.50540918    -0.14400
F2570       F  0.77593857  0.57836509  0.50725105    -0.16700
F2571       F  0.77452037  0.97097955  0.99573143    -0.16700
F2572       F  0.72216301  0.97059286  0.99717207    -0.14400
C2573       C  0.94185167  0.58093272  0.82054804     0.23600
C2574       C  0.91545674  0.58048219  0.83067948    -0.24500
C2575       C  0.91654785  0.60727042  0.84034100     0.18600
C2576       C  0.94373813  0.63422909  0.83992614     0.23600
C2577       C  0.97020980  0.63468404  0.83015387    -0.24400
C2578       C  0.96912702  0.60789725  0.82040311     0.18500
F2579       F  0.99429889  0.60801896  0.80969971    -0.14400
F2580       F  0.94102892  0.55541599  0.80978648    -0.16700
F2581       F  0.94438226  0.65976721  0.85018896    -0.16700
F2582       F  0.89143845  0.60715746  0.85132811    -0.14400
C2583       C  0.60227784  0.92320683  0.69698786     0.23600
C2584       C  0.58213308  0.91552371  0.66832642    -0.24500
C2585       C  0.58951283  0.93540745  0.63936777     0.18600
C2586       C  0.61657021  0.96249263  0.63906386     0.23600
C2587       C  0.63670210  0.97018514  0.66773039    -0.24400
C2588       C  0.62933612  0.95031049  0.69668969     0.18500
F2589       F  0.64790875  0.95748304  0.72526074    -0.14400
F2590       F  0.59542285  0.90491839  0.72584354    -0.16700
F2591       F  0.62342371  0.98078156  0.61020766    -0.16700
F2592       F  0.57093119  0.92829281  0.61081438    -0.14400
loop_ 
_geom_bond_atom_site_label_1 
_geom_bond_atom_site_label_2 
_geom_bond_distance 
_geom_bond_site_symmetry_2 
_ccdc_geom_bond_type 
C1            N2   1.350       .  A
C1            N6   1.350       .  A
C1          C316   1.468       .  S
N2            C3   1.353       .  A
C3         N1300   1.369       .  A
C3           C52   1.470       .  S
N4            C5   1.369       .  A
N4         C1299   1.369       .  A
C5         N1302   1.354       .  A
C5          C125   1.471       .  S
N6         C1301   1.354       .  A
C7            N8   1.350   1_565  A
C7           N12   1.349   1_565  A
C7          C967   1.468       .  S
N8            C9   1.354       .  A
C9           N10   1.370       .  A
C9           C36   1.473       .  S
N10          C11   1.370       .  A
C11          N12   1.352       .  A
C11          C99   1.472       .  S
C13          N14   1.351   1_655  A
C13          N18   1.350   1_655  A
C13        C1605   1.464       .  S
N14          C15   1.356       .  A
C15          N16   1.370       .  A
C15         C206   1.474       .  S
N16          C17   1.369       .  A
C17          N18   1.354       .  A
C17          C51   1.472       .  S
C19          N20   1.350       .  A
C19          N24   1.349       .  A
C19         C306   1.463       .  S
N20         C669   1.355       .  A
C21          N22   1.370       .  A
C21         N668   1.355       .  A
C21         C180   1.474       .  S
N22         C671   1.370       .  A
C23          N24   1.353       .  A
C23         N670   1.371       .  A
C23          C35   1.473       .  S
O25        Ni681   1.924       .  S
O25         C683   1.279       .  A
O26         Ni33   1.917   1_545  S
O26          C36   1.284       .  A
O27         Ni33   1.919   1_545  S
O27          C37   1.284       .  A
O28        Ni681   1.922       .  S
O28         C686   1.279       .  A
O29         Ni34   1.915       .  S
O29          C38   1.284       .  A
O30         Ni34   1.924       .  S
O30          C37   1.279       .  A
O31         Ni34   1.924       .  S
O31          C36   1.279       .  A
O32         Ni34   1.918       .  S
O32          C35   1.285       .  A
Ni33        O673   1.924       .  S
Ni33        O676   1.923   1_565  S
Ni33        Ni34   2.390   1_565  S
C35         O673   1.279   1_545  A
C37         C113   1.473       .  S
C38         C183   1.471       .  S
C38         O676   1.279       .  A
O39         Ni47   1.916       .  S
O39          C49   1.284       .  A
O40         Ni47   1.923       .  S
O40          C50   1.279       .  A
O41         Ni47   1.924       .  S
O41          C51   1.279       .  A
O42         Ni47   1.915       .  S
O42          C52   1.284       .  A
O43       Ni1344   1.921       .  S
O43        C1348   1.278       .  A
O44         Ni48   1.916   1_455  S
O44          C51   1.284       .  A
O45         Ni48   1.918   1_455  S
O45          C50   1.285       .  A
O46         Ni48   1.924   1_455  S
O46          C49   1.279       .  A
Ni47        Ni48   2.390   1_455  S
Ni48       O1339   1.921   1_655  S
C49          C79   1.472       .  S
C50         C157   1.473       .  S
C52        O1339   1.278       .  A
C53          N58   1.351       .  A
C53         N378   1.351   1_554  A
C53         C299   1.478       .  S
N54          C55   1.356       .  A
N54         C377   1.352       .  A
C55         N380   1.369       .  A
C55         C826   1.473   1_545  S
N56          C57   1.368   1_556  A
N56         C379   1.369       .  A
C57          N58   1.355       .  A
C57         C140   1.473       .  S
C59          N60   1.352       .  A
C59         N388   1.352       .  A
C59         C296   1.478       .  S
N60          C61   1.356       .  A
C61          N62   1.368       .  A
C61         C868   1.474   1_545  S
N62         C387   1.368       .  A
C63          N64   1.354       .  A
C63         N386   1.370       .  A
C63         C101   1.474       .  S
N64         C383   1.351       .  A
C65          N70   1.349       .  A
C65         N390   1.353   1_554  A
C65         C286   1.480       .  S
N66          C67   1.358       .  A
N66         C389   1.353       .  A
C67         N392   1.369       .  A
C67         C204   1.473       .  S
N68          C69   1.367   1_556  A
N68         C391   1.368       .  A
C69          N70   1.352       .  A
C69        C1437   1.469   1_455  S
C71          N76   1.350       .  A
C71         N396   1.352       .  A
C71         C289   1.478       .  S
N72          C73   1.356       .  A
N72         C395   1.352       .  A
C73         N398   1.369       .  A
C73        C1423   1.473   1_455  S
N74          C75   1.369       .  A
N74         C397   1.369       .  A
C75          N76   1.353       .  A
C75         C217   1.472       .  S
C77          N78   1.350       .  A
C77          N82   1.350       .  A
C77         C279   1.468       .  S
N78          C79   1.354       .  A
C79        N1376   1.369       .  A
N80          C81   1.369       .  A
N80        C1375   1.368       .  A
C81        N1378   1.356       .  A
C81         C139   1.472       .  S
N82        C1377   1.356       .  A
C83          N84   1.351       .  A
C83          N88   1.350       .  A
C83         C276   1.469       .  S
N84          C85   1.357       .  A
C85          N86   1.368       .  A
C85         C102   1.472       .  S
N86          C87   1.368       .  A
C87          N88   1.354       .  A
C87         C233   1.471       .  S
O89         Ni97   1.919       .  S
O89          C99   1.285       .  A
O90         Ni97   1.925       .  S
O90         C100   1.279       .  A
O91         Ni97   1.923       .  S
O91         C101   1.279       .  A
O92         Ni97   1.915       .  S
O92         C102   1.283       .  A
O93         Ni98   1.925       .  S
O93         C102   1.280       .  A
O94         Ni98   1.921       .  S
O94         C101   1.285       .  A
O95         Ni98   1.915       .  S
O95         C100   1.284       .  A
O96         Ni98   1.920       .  S
O96          C99   1.278       .  A
Ni97        Ni98   2.390       .  S
C100        C147   1.473       .  S
C103        N104   1.352       .  A
C103        N108   1.351       .  A
C103        C266   1.477       .  S
N104        C105   1.355       .  A
C105        N106   1.368       .  A
C105        C128   1.473       .  S
N106        C107   1.368       .  A
C107        N108   1.354       .  A
C107        C232   1.472       .  S
C109        N758   1.350       .  A
C109        N762   1.350       .  A
C109        C269   1.476       .  S
N110        C111   1.355       .  A
N110        C757   1.350   1_545  A
C111        N112   1.369       .  A
C111        C142   1.473       .  S
N112        C113   1.370       .  A
C113        N114   1.355       .  A
N114        C757   1.351   1_545  A
O115       Ni123   1.923       .  S
O115        C125   1.279       .  A
O116       Ni123   1.917       .  S
O116        C126   1.285       .  A
O117       Ni123   1.918       .  S
O117        C127   1.284       .  A
O118       Ni123   1.923       .  S
O118        C128   1.279       .  A
O119       Ni124   1.918       .  S
O119        C128   1.284       .  A
O120       Ni124   1.925       .  S
O120        C127   1.280       .  A
O121       Ni124   1.923       .  S
O121        C126   1.278       .  A
O122       Ni124   1.916       .  S
O122        C125   1.284       .  A
Ni123      Ni124   2.390       .  S
C126        C151   1.472       .  S
C127       C1369   1.474       .  S
O129       Ni137   1.918       .  S
O129        C139   1.284       .  A
O130       Ni137   1.925       .  S
O130        C140   1.280       .  A
O131       Ni137   1.920       .  S
O131        C141   1.278       .  A
O132       Ni137   1.916       .  S
O132        C142   1.284       .  A
O133       Ni138   1.925       .  S
O133        C142   1.280       .  A
O134       Ni138   1.916       .  S
O134        C141   1.284       .  A
O135       Ni138   1.916       .  S
O135        C140   1.284       .  A
O136       Ni138   1.922       .  S
O136        C139   1.279       .  A
Ni137      Ni138   2.390       .  S
C141       C1365   1.469       .  S
C143        N148   1.351   1_556  A
C143        N468   1.351       .  A
C143        C256   1.476       .  S
N144        C145   1.354       .  A
N144        C467   1.352       .  A
C145        N470   1.370       .  A
C145        C205   1.475       .  S
N146        C147   1.369   1_556  A
N146        C469   1.369       .  A
C147        N148   1.355       .  A
C149        N154   1.350       .  A
C149        N474   1.351       .  A
C149        C259   1.475       .  S
N150        C151   1.354       .  A
N150        C473   1.350       .  A
C151        N476   1.370       .  A
N152        C153   1.370       .  A
N152        C475   1.370       .  A
C153        N154   1.353       .  A
C153        C179   1.474       .  S
C155       N1452   1.351       .  A
C155       N1456   1.350       .  A
C155        C246   1.476       .  S
N156        C157   1.354   1_655  A
N156       C1451   1.351       .  A
C157        N158   1.369       .  A
N158        C159   1.369       .  A
C159        N160   1.353       .  A
C159        C219   1.471       .  S
N160       C1451   1.350   1_455  A
C161        N162   1.349       .  A
C161        N166   1.351       .  A
C161        C249   1.477       .  S
N162        C163   1.353       .  A
C163        N164   1.368       .  A
C163        C234   1.470       .  S
N164        C165   1.369       .  A
C165        N166   1.355       .  A
C165        C177   1.472       .  S
O167       Ni175   1.920       .  S
O167        C177   1.285       .  A
O168       Ni175   1.926       .  S
O168        C178   1.280       .  A
O169       Ni175   1.924       .  S
O169        C179   1.279       .  A
O170       Ni175   1.917       .  S
O170        C180   1.284       .  A
O171       Ni176   1.925       .  S
O171        C180   1.279       .  A
O172       Ni176   1.919       .  S
O172        C179   1.285       .  A
O173       Ni176   1.915       .  S
O173        C178   1.283       .  A
O174       Ni176   1.921       .  S
O174        C177   1.279       .  A
Ni175      Ni176   2.389       .  S
C178        C703   1.472       .  S
C181        N182   1.349       .  A
C181        N186   1.350       .  A
C181        C236   1.464       .  S
N182        C183   1.354       .  A
C183        N832   1.368       .  A
N184        C185   1.368       .  A
N184        C831   1.368       .  A
C185        N834   1.355       .  A
C185        C218   1.470       .  S
N186        C833   1.355       .  A
C187        N188   1.350       .  A
C187        N192   1.350       .  A
C187        C239   1.463       .  S
N188        C189   1.354       .  A
C189        N190   1.368       .  A
C189        C203   1.470       .  S
N190        C191   1.368       .  A
C191        N192   1.355       .  A
C191        C231   1.471       .  S
O193       Ni201   1.919       .  S
O193        C203   1.278       .  A
O194       Ni201   1.916       .  S
O194        C204   1.283       .  A
O195       Ni201   1.921       .  S
O195        C205   1.285       .  A
O196       Ni201   1.926       .  S
O196        C206   1.280       .  A
O197       Ni202   1.917       .  S
O197        C206   1.284       .  A
O198       Ni202   1.923       .  S
O198        C205   1.279       .  A
O199       Ni202   1.926       .  S
O199        C204   1.280       .  A
O200       Ni202   1.919       .  S
O200        C203   1.284       .  A
Ni201      Ni202   2.389       .  S
O207       Ni215   1.923       .  S
O207        C217   1.279       .  A
O208       Ni215   1.916       .  S
O208        C218   1.283       .  A
O209       Ni215   1.921       .  S
O209        C219   1.285       .  A
O210       Ni215   1.929       .  S
O210        C220   1.281       .  A
O211       Ni216   1.915       .  S
O211        C220   1.283       .  A
O212       Ni216   1.919       .  S
O212        C219   1.278       .  A
O213       Ni216   1.922       .  S
O213        C218   1.279       .  A
O214       Ni216   1.917       .  S
O214        C217   1.284       .  A
Ni215      Ni216   2.390       .  S
C220        C709   1.475       .  S
O221       Ni229   1.924       .  S
O221        C231   1.280       .  A
O222       Ni229   1.919       .  S
O222        C232   1.284       .  A
O223       Ni229   1.916       .  S
O223        C233   1.284       .  A
O224       Ni229   1.922       .  S
O224        C234   1.279       .  A
O225       Ni230   1.915       .  S
O225        C234   1.284       .  A
O226       Ni230   1.923       .  S
O226        C233   1.279       .  A
O227       Ni230   1.921       .  S
O227        C232   1.279       .  A
O228       Ni230   1.914       .  S
O228        C231   1.283       .  A
Ni229      Ni230   2.390       .  S
C235        C236   1.403       .  A
C235        C240   1.393       .  A
C235        F242   1.358       .  S
C236        C237   1.405       .  A
C237        C238   1.395       .  A
C237        F244   1.358       .  S
C238        C239   1.404       .  A
C238        F243   1.358       .  S
C239        C240   1.404       .  A
C240        F241   1.358       .  S
C245        C246   1.408       .  A
C245        C250   1.392       .  A
C245        F252   1.358       .  S
C246        C247   1.408       .  A
C247        C248   1.393       .  A
C247        F254   1.358       .  S
C248        C249   1.409       .  A
C248        F253   1.358       .  S
C249        C250   1.408       .  A
C250        F251   1.358       .  S
C255        C260   1.393       .  A
C255        C580   1.407       .  A
C255        F262   1.358       .  S
C256        C257   1.408   1_556  A
C256        C579   1.408       .  A
C257        C258   1.395       .  A
C257        F264   1.358       .  S
C258        C583   1.408       .  A
C258        F263   1.358       .  S
C259        C260   1.408       .  A
C259        C582   1.407       .  A
C260        F261   1.358       .  S
C265        C266   1.408       .  A
C265        C270   1.394       .  A
C265        F272   1.358       .  S
C266        C267   1.408       .  A
C267        C268   1.394       .  A
C267        F274   1.358       .  S
C268        C269   1.407       .  A
C268        F273   1.358       .  S
C269        C270   1.408       .  A
C270        F271   1.358       .  S
C275        C276   1.406       .  A
C275        C280   1.397       .  A
C275        F282   1.358       .  S
C276        C277   1.405       .  A
C277        C278   1.393       .  A
C277        F284   1.358       .  S
C278        C279   1.405       .  A
C278        F283   1.358       .  S
C279        C280   1.406       .  A
C280        F281   1.358       .  S
C285        C290   1.393       .  A
C285       C1906   1.410       .  A
C285        F292   1.358       .  S
C286        C287   1.407   1_554  A
C286       C1905   1.410       .  A
C287        C288   1.395       .  A
C287        F294   1.358       .  S
C288        C613   1.409   1_556  A
C288        F293   1.358       .  S
C289        C612   1.409       .  A
C289       C1586   1.407   1_455  A
C290       C1585   1.407       .  A
C290        F291   1.358       .  S
C295        C300   1.394       .  A
C295        C620   1.408       .  A
C295        F302   1.358       .  S
C296        C619   1.407       .  A
C296        C945   1.408   1_545  A
C297        C298   1.397       .  A
C297        C944   1.408       .  A
C297        F304   1.358       .  S
C298       C1271   1.408       .  A
C298        F303   1.358       .  S
C299        C300   1.408       .  A
C299       C1270   1.408   1_544  A
C300        F301   1.358       .  S
C305        C306   1.404       .  A
C305        C310   1.395       .  A
C305        F312   1.358       .  S
C306        C307   1.404       .  A
C307        C308   1.394       .  A
C307        F314   1.358       .  S
C308        C309   1.404       .  A
C308        F313   1.358       .  S
C309       C1309   1.464       .  S
C309        C310   1.404       .  A
C310        F311   1.358       .  S
C315        C316   1.406       .  A
C315        C320   1.393       .  A
C315        F322   1.358       .  S
C316        C317   1.406       .  A
C317        C318   1.392       .  A
C317        F324   1.358       .  S
C318        C319   1.406       .  A
C318        F323   1.358       .  S
C319        C655   1.468       .  S
C319        C320   1.406       .  A
C320        F321   1.358       .  S
C325        N326   1.350       .  A
C325        N330   1.350       .  A
C325        C640   1.470       .  S
N326        C327   1.354       .  A
C327       N1624   1.369       .  A
C327        C376   1.471       .  S
N328       C1623   1.369       .  A
N328        C329   1.369       .  A
C329       N1626   1.354       .  A
C329        C449   1.472       .  S
N330       C1625   1.354       .  A
C331        N332   1.350   1_565  A
C331        N336   1.350   1_565  A
C331       C1291   1.469       .  S
N332        C333   1.354       .  A
C333        N334   1.370       .  A
C333        C360   1.473       .  S
N334        C335   1.370       .  A
C335        N336   1.354       .  A
C335        C423   1.472       .  S
C337        N338   1.352   1_655  A
C337        N342   1.350   1_655  A
C337       C1929   1.468       .  S
N338        C339   1.356       .  A
C339        N340   1.370       .  A
C339        C530   1.475       .  S
N340        C341   1.369       .  A
C341        N342   1.354       .  A
C341        C375   1.473       .  S
C343        N344   1.350       .  A
C343        N348   1.350       .  A
C343        C630   1.468       .  S
N344        C993   1.355       .  A
C345        N992   1.354       .  A
C345        N346   1.371       .  A
C345        C504   1.475       .  S
N346        C995   1.371       .  A
C347        N994   1.371       .  A
C347        N348   1.354       .  A
C347        C359   1.475       .  S
O349      Ni1005   1.925       .  S
O349       C1007   1.279       .  A
O350       Ni357   1.917   1_545  S
O350        C360   1.284       .  A
O351       Ni357   1.917   1_545  S
O351        C361   1.284       .  A
O352      Ni1005   1.923       .  S
O352       C1010   1.279       .  A
O353       Ni358   1.915       .  S
O353        C362   1.283       .  A
O354       Ni358   1.922       .  S
O354        C361   1.279       .  A
O355       Ni358   1.925       .  S
O355        C360   1.279       .  A
O356       Ni358   1.919       .  S
O356        C359   1.285       .  A
Ni357       O997   1.925       .  S
Ni357      O1000   1.923       .  S
Ni357      Ni358   2.390   1_565  S
C359        O997   1.279   1_545  A
C361        C437   1.471       .  S
C362        C507   1.471       .  S
C362       O1000   1.280   1_545  A
O363       Ni371   1.917       .  S
O363        C373   1.284       .  A
O364       Ni371   1.922       .  S
O364        C374   1.279       .  A
O365       Ni371   1.924       .  S
O365        C375   1.279       .  A
O366       Ni371   1.916       .  S
O366        C376   1.284       .  A
O367      Ni1668   1.923       .  S
O367       C1672   1.279       .  A
O368       Ni372   1.917   1_455  S
O368        C375   1.284       .  A
O369       Ni372   1.915   1_455  S
O369        C374   1.284       .  A
O370       Ni372   1.922   1_455  S
O370        C373   1.279       .  A
Ni371      Ni372   2.390   1_455  S
Ni372      O1663   1.923       .  S
C373        C403   1.471       .  S
C374        C481   1.471       .  S
C376       O1663   1.279   1_455  A
C377        N382   1.351       .  A
C377        C623   1.478       .  S
N378        C379   1.356       .  A
C379       C1150   1.473   1_545  S
N380        C381   1.368       .  A
C381        N382   1.355       .  A
C381        C464   1.473       .  S
C383        N384   1.352   1_554  A
C383        C620   1.478       .  S
N384        C385   1.357       .  A
C385        N386   1.369   1_556  A
C385       C1192   1.476   1_545  S
C387        N388   1.355       .  A
C387        C425   1.473       .  S
C389        N394   1.349       .  A
C389        C610   1.478       .  S
N390        C391   1.357       .  A
C391        C528   1.473       .  S
N392        C393   1.367       .  A
C393        N394   1.352       .  A
C393       C1761   1.469   1_455  S
C395        N400   1.350   1_554  A
C395        C613   1.478       .  S
N396        C397   1.356       .  A
C397       C1747   1.474   1_455  S
N398        C399   1.368   1_554  A
C399        N400   1.354       .  A
C399        C541   1.472       .  S
C401        N402   1.350       .  A
C401        N406   1.350       .  A
C401        C603   1.470       .  S
N402        C403   1.354       .  A
C403       N1700   1.369       .  A
N404       C1699   1.369       .  A
N404        C405   1.369       .  A
C405       N1702   1.355       .  A
C405        C463   1.472       .  S
N406       C1701   1.355       .  A
C407        N408   1.351       .  A
C407        N412   1.350       .  A
C407        C600   1.471       .  S
N408        C409   1.356       .  A
C409        N410   1.368       .  A
C409        C426   1.472       .  S
N410        C411   1.368       .  A
C411        N412   1.354       .  A
C411        C557   1.471       .  S
O413       Ni421   1.918       .  S
O413        C423   1.285       .  A
O414       Ni421   1.925       .  S
O414        C424   1.279       .  A
O415       Ni421   1.923       .  S
O415        C425   1.279       .  A
O416       Ni421   1.917       .  S
O416        C426   1.284       .  A
O417       Ni422   1.924       .  S
O417        C426   1.280       .  A
O418       Ni422   1.918       .  S
O418        C425   1.284       .  A
O419       Ni422   1.917       .  S
O419        C424   1.285       .  A
O420       Ni422   1.922       .  S
O420        C423   1.278       .  A
Ni421      Ni422   2.390       .  S
C424        C471   1.474       .  S
C427        N428   1.351       .  A
C427        N432   1.352       .  A
C427        C590   1.477       .  S
N428        C429   1.355       .  A
C429        N430   1.368       .  A
C429        C452   1.472       .  S
N430        C431   1.368       .  A
C431        N432   1.355       .  A
C431        C556   1.472       .  S
C433       N1082   1.350       .  A
C433       N1086   1.350       .  A
C433        C593   1.475       .  S
N434       C1081   1.350   1_545  A
N434        C435   1.355       .  A
C435        N436   1.368       .  A
C435        C466   1.471       .  S
N436        C437   1.369       .  A
C437        N438   1.355       .  A
N438       C1081   1.350   1_545  A
O439       Ni447   1.924       .  S
O439        C449   1.279       .  A
O440       Ni447   1.918       .  S
O440        C450   1.285       .  A
O441       Ni447   1.918       .  S
O441        C451   1.284       .  A
O442       Ni447   1.923       .  S
O442        C452   1.279       .  A
O443       Ni448   1.918       .  S
O443        C452   1.284       .  A
O444       Ni448   1.925       .  S
O444        C451   1.280       .  A
O445       Ni448   1.923       .  S
O445        C450   1.279       .  A
O446       Ni448   1.917       .  S
O446        C449   1.284       .  A
Ni447      Ni448   2.389       .  S
C450        C475   1.474       .  S
C451       C1693   1.474       .  S
O453       Ni461   1.918       .  S
O453        C463   1.284       .  A
O454       Ni461   1.925       .  S
O454        C464   1.280       .  A
O455       Ni461   1.919       .  S
O455        C465   1.278       .  A
O456       Ni461   1.914       .  S
O456        C466   1.283       .  A
O457       Ni462   1.923       .  S
O457        C466   1.279       .  A
O458       Ni462   1.915       .  S
O458        C465   1.284       .  A
O459       Ni462   1.916       .  S
O459        C464   1.284       .  A
O460       Ni462   1.922       .  S
O460        C463   1.279       .  A
Ni461      Ni462   2.390       .  S
C465       C1689   1.468       .  S
C467        N472   1.350       .  A
C467        C580   1.476       .  S
N468        C469   1.354       .  A
C469        C529   1.473       .  S
N470        C471   1.370       .  A
C471        N472   1.353       .  A
C473        N478   1.350   1_554  A
C473        C583   1.475       .  S
N474        C475   1.354       .  A
N476        C477   1.370   1_554  A
C477        N478   1.354       .  A
C477        C503   1.473       .  S
C479       N1776   1.351       .  A
C479       N1780   1.350       .  A
C479        C570   1.476       .  S
N480       C1775   1.351       .  A
N480        C481   1.354   1_655  A
C481        N482   1.368       .  A
N482        C483   1.368       .  A
C483        N484   1.353       .  A
C483        C543   1.470       .  S
N484       C1775   1.350   1_455  A
C485        N486   1.349       .  A
C485        N490   1.351       .  A
C485        C573   1.477       .  S
N486        C487   1.353       .  A
C487        N488   1.368       .  A
C487        C558   1.469       .  S
N488        C489   1.368       .  A
C489        N490   1.355       .  A
C489        C501   1.472       .  S
O491       Ni499   1.918       .  S
O491        C501   1.284       .  A
O492       Ni499   1.926       .  S
O492        C502   1.280       .  A
O493       Ni499   1.924       .  S
O493        C503   1.279       .  A
O494       Ni499   1.918       .  S
O494        C504   1.285       .  A
O495       Ni500   1.925       .  S
O495        C504   1.279       .  A
O496       Ni500   1.918       .  S
O496        C503   1.285       .  A
O497       Ni500   1.915       .  S
O497        C502   1.283       .  A
O498       Ni500   1.922       .  S
O498        C501   1.279       .  A
Ni499      Ni500   2.389       .  S
C502       C1027   1.473       .  S
C505        N506   1.350       .  A
C505        N510   1.350       .  A
C505        C560   1.464       .  S
N506        C507   1.355       .  A
C507       N1156   1.368       .  A
N508       C1155   1.368       .  A
N508        C509   1.369       .  A
C509       N1158   1.355       .  A
C509        C542   1.470       .  S
N510       C1157   1.355       .  A
C511        N512   1.350       .  A
C511        N516   1.350       .  A
C511        C563   1.464       .  S
N512        C513   1.354       .  A
C513        N514   1.368       .  A
C513        C527   1.471       .  S
N514        C515   1.368       .  A
C515        N516   1.355       .  A
C515        C555   1.470       .  S
O517       Ni525   1.921       .  S
O517        C527   1.279       .  A
O518       Ni525   1.916       .  S
O518        C528   1.283       .  A
O519       Ni525   1.921       .  S
O519        C529   1.285       .  A
O520       Ni525   1.927       .  S
O520        C530   1.280       .  A
O521       Ni526   1.917       .  S
O521        C530   1.284       .  A
O522       Ni526   1.922       .  S
O522        C529   1.278       .  A
O523       Ni526   1.924       .  S
O523        C528   1.280       .  A
O524       Ni526   1.918       .  S
O524        C527   1.284       .  A
Ni525      Ni526   2.389       .  S
O531       Ni539   1.923       .  S
O531        C541   1.279       .  A
O532       Ni539   1.916       .  S
O532        C542   1.284       .  A
O533       Ni539   1.919       .  S
O533        C543   1.285       .  A
O534       Ni539   1.928       .  S
O534        C544   1.281       .  A
O535       Ni540   1.914       .  S
O535        C544   1.283       .  A
O536       Ni540   1.918       .  S
O536        C543   1.278       .  A
O537       Ni540   1.922       .  S
O537        C542   1.279       .  A
O538       Ni540   1.916       .  S
O538        C541   1.284       .  A
Ni539      Ni540   2.390       .  S
C544       C1033   1.474       .  S
O545       Ni553   1.923       .  S
O545        C555   1.280       .  A
O546       Ni553   1.919       .  S
O546        C556   1.284       .  A
O547       Ni553   1.916       .  S
O547        C557   1.284       .  A
O548       Ni553   1.921       .  S
O548        C558   1.279       .  A
O549       Ni554   1.914       .  S
O549        C558   1.284       .  A
O550       Ni554   1.922       .  S
O550        C557   1.279       .  A
O551       Ni554   1.922       .  S
O551        C556   1.279       .  A
O552       Ni554   1.915       .  S
O552        C555   1.283       .  A
Ni553      Ni554   2.390       .  S
C559        C560   1.404       .  A
C559        C564   1.393       .  A
C559        F566   1.358       .  S
C560        C561   1.405       .  A
C561        C562   1.395       .  A
C561        F568   1.358       .  S
C562        C563   1.404       .  A
C562        F567   1.358       .  S
C563        C564   1.404       .  A
C564        F565   1.358       .  S
C569        C570   1.408       .  A
C569        C574   1.392       .  A
C569        F576   1.358       .  S
C570        C571   1.408       .  A
C571        C572   1.393       .  A
C571        F578   1.358       .  S
C572        C573   1.409       .  A
C572        F577   1.358       .  S
C573        C574   1.407       .  A
C574        F575   1.358       .  S
C579        C584   1.393       .  A
C579        F586   1.358       .  S
C580        C581   1.408       .  A
C581        C582   1.394       .  A
C581        F588   1.358       .  S
C582        F587   1.358       .  S
C583        C584   1.407   1_554  A
C584        F585   1.358       .  S
C589        C590   1.408       .  A
C589        C594   1.394       .  A
C589        F596   1.358       .  S
C590        C591   1.408       .  A
C591        C592   1.394       .  A
C591        F598   1.358       .  S
C592        C593   1.407       .  A
C592        F597   1.358       .  S
C593        C594   1.407       .  A
C594        F595   1.358       .  S
C599        C600   1.406       .  A
C599        C604   1.395       .  A
C599        F606   1.358       .  S
C600        C601   1.407       .  A
C601        C602   1.393       .  A
C601        F608   1.358       .  S
C602        C603   1.406       .  A
C602        F607   1.358       .  S
C603        C604   1.406       .  A
C604        F605   1.358       .  S
C609       C1582   1.410       .  A
C609        C614   1.393       .  A
C609        F616   1.358       .  S
C610       C1581   1.410       .  A
C610        C611   1.407       .  A
C611        C612   1.395       .  A
C611        F618   1.358       .  S
C612        F617   1.358       .  S
C613       C1910   1.407       .  A
C614       C1909   1.407       .  A
C614        F615   1.358       .  S
C619        C624   1.395       .  A
C619        F626   1.358       .  S
C620       C1269   1.408   1_544  A
C621       C1268   1.408   1_556  A
C621        C622   1.396       .  A
C621        F628   1.358       .  S
C622        C947   1.408       .  A
C622        F627   1.358       .  S
C623        C946   1.408   1_545  A
C623        C624   1.407       .  A
C624        F625   1.358       .  S
C629        C630   1.406       .  A
C629        C634   1.396       .  A
C629        F636   1.358       .  S
C630        C631   1.405       .  A
C631        C632   1.394       .  A
C631        F638   1.358       .  S
C632        C633   1.406       .  A
C632        F637   1.358       .  S
C633       C1633   1.468       .  S
C633        C634   1.405       .  A
C634        F635   1.358       .  S
C639        C640   1.406       .  A
C639        C644   1.394       .  A
C639        F646   1.358       .  S
C640        C641   1.406       .  A
C641        C642   1.393       .  A
C641        F648   1.358       .  S
C642        C643   1.406       .  A
C642        F647   1.358       .  S
C643        C979   1.469       .  S
C643        C644   1.406       .  A
C644        F645   1.358       .  S
C649        N650   1.350       .  A
C649        N654   1.350       .  A
C649        C964   1.469       .  S
N650        C651   1.353       .  A
C651       N1948   1.369       .  A
C651        C700   1.471       .  S
N652       C1947   1.369       .  A
N652        C653   1.369       .  A
C653       N1950   1.354       .  A
C653        C773   1.472       .  S
N654       C1949   1.354       .  A
C655        N656   1.350       .  A
C655        N660   1.349       .  A
N656        C657   1.354       .  A
C657        N658   1.370       .  A
C657        C684   1.473       .  S
N658        C659   1.371       .  A
C659        N660   1.353       .  A
C659        C747   1.473       .  S
C661        N662   1.352   1_655  A
C661        N666   1.350   1_655  A
C661       C2253   1.466       .  S
N662        C663   1.356       .  A
C663        N664   1.370       .  A
C663        C854   1.474       .  S
N664        C665   1.369       .  A
C665        N666   1.354       .  A
C665        C699   1.473       .  S
C667        N668   1.351       .  A
C667        N672   1.349       .  A
C667        C954   1.465       .  S
C669        N670   1.371       .  A
C669        C828   1.475   1_545  S
C671        N672   1.353       .  A
C671        C683   1.473       .  S
O674       Ni681   1.917       .  S
O674        C684   1.285       .  A
O675       Ni681   1.917       .  S
O675        C685   1.284       .  A
O677       Ni682   1.914       .  S
O677        C686   1.283       .  A
O678       Ni682   1.922       .  S
O678        C685   1.279       .  A
O679       Ni682   1.924       .  S
O679        C684   1.279       .  A
O680       Ni682   1.917       .  S
O680        C683   1.285       .  A
Ni681      Ni682   2.390       .  S
C685        C761   1.471       .  S
C686        C831   1.469       .  S
O687       Ni695   1.918       .  S
O687        C697   1.284       .  A
O688       Ni695   1.924       .  S
O688        C698   1.279       .  A
O689       Ni695   1.925       .  S
O689        C699   1.279       .  A
O690       Ni695   1.916       .  S
O690        C700   1.284       .  A
O691      Ni1992   1.922       .  S
O691       C1996   1.278       .  A
O692       Ni696   1.916   1_455  S
O692        C699   1.284       .  A
O693       Ni696   1.916   1_455  S
O693        C698   1.284       .  A
O694       Ni696   1.922   1_455  S
O694        C697   1.279       .  A
Ni695      Ni696   2.390   1_455  S
Ni696      O1987   1.922   1_655  S
C697        C727   1.472       .  S
C698        C805   1.473       .  S
C700       O1987   1.278       .  A
C701       N1026   1.351       .  A
C701        N706   1.351   1_556  A
C701        C947   1.477       .  S
N702       C1025   1.352       .  A
N702        C703   1.356       .  A
C703       N1028   1.368       .  A
N704       C1027   1.369       .  A
N704        C705   1.369   1_556  A
C705        N706   1.355       .  A
C705        C788   1.473       .  S
C707        N708   1.352       .  A
C707       N1036   1.351       .  A
C707        C944   1.479       .  S
N708        C709   1.357       .  A
C709        N710   1.368       .  A
N710       C1035   1.369       .  A
C711       N1034   1.369       .  A
C711        N712   1.355       .  A
C711        C749   1.473       .  S
N712       C1031   1.351       .  A
C713       N1038   1.352   1_554  A
C713        N718   1.349       .  A
C713        C934   1.478       .  S
N714       C1037   1.353       .  A
N714        C715   1.357       .  A
C715       N1040   1.369       .  A
C715        C852   1.473       .  S
N716       C1039   1.369       .  A
N716        C717   1.368   1_556  A
C717        N718   1.352       .  A
C717       C2085   1.470   1_455  S
C719       N1044   1.352       .  A
C719        N724   1.350       .  A
C719        C937   1.479       .  S
N720       C1043   1.352       .  A
N720        C721   1.356       .  A
C721       N1046   1.369       .  A
C721       C2071   1.474   1_455  S
N722       C1045   1.370       .  A
N722        C723   1.369       .  A
C723        N724   1.354       .  A
C723        C865   1.474       .  S
C725        N726   1.352       .  A
C725        N730   1.350       .  A
C725        C927   1.480       .  S
N726        C727   1.356       .  A
C727       N2024   1.369       .  A
N728       C2023   1.369       .  A
N728        C729   1.368       .  A
C729       N2026   1.353       .  A
C729        C787   1.471       .  S
N730       C2025   1.353       .  A
C731        N732   1.352       .  A
C731        N736   1.351       .  A
C731        C924   1.480       .  S
N732        C733   1.355       .  A
C733        N734   1.367       .  A
C733        C750   1.472       .  S
N734        C735   1.368       .  A
C735        N736   1.355       .  A
C735        C881   1.471       .  S
O737       Ni745   1.919       .  S
O737        C747   1.285       .  A
O738       Ni745   1.925       .  S
O738        C748   1.279       .  A
O739       Ni745   1.923       .  S
O739        C749   1.279       .  A
O740       Ni745   1.916       .  S
O740        C750   1.283       .  A
O741       Ni746   1.924       .  S
O741        C750   1.280       .  A
O742       Ni746   1.919       .  S
O742        C749   1.285       .  A
O743       Ni746   1.918       .  S
O743        C748   1.285       .  A
O744       Ni746   1.923       .  S
O744        C747   1.278       .  A
Ni745      Ni746   2.389       .  S
C748        C795   1.474       .  S
C751        N752   1.352       .  A
C751        N756   1.352       .  A
C751        C914   1.478       .  S
N752        C753   1.355       .  A
C753        N754   1.368       .  A
C753        C776   1.474       .  S
N754        C755   1.368       .  A
C755        N756   1.355       .  A
C755        C880   1.473       .  S
C757        C917   1.477       .  S
N758        C759   1.354       .  A
C759        N760   1.368       .  A
C759        C790   1.472       .  S
N760        C761   1.369       .  A
C761        N762   1.355       .  A
O763       Ni771   1.924       .  S
O763        C773   1.279       .  A
O764       Ni771   1.918       .  S
O764        C774   1.285       .  A
O765       Ni771   1.919       .  S
O765        C775   1.284       .  A
O766       Ni771   1.924       .  S
O766        C776   1.280       .  A
O767       Ni772   1.919       .  S
O767        C776   1.284       .  A
O768       Ni772   1.925       .  S
O768        C775   1.280       .  A
O769       Ni772   1.924       .  S
O769        C774   1.279       .  A
O770       Ni772   1.917       .  S
O770        C773   1.284       .  A
Ni771      Ni772   2.389       .  S
C774        C799   1.474       .  S
C775       C2017   1.474       .  S
O777       Ni785   1.916       .  S
O777        C787   1.284       .  A
O778       Ni785   1.925       .  S
O778        C788   1.280       .  A
O779       Ni785   1.920       .  S
O779        C789   1.278       .  A
O780       Ni785   1.914       .  S
O780        C790   1.283       .  A
O781       Ni786   1.926       .  S
O781        C790   1.280       .  A
O782       Ni786   1.917       .  S
O782        C789   1.285       .  A
O783       Ni786   1.917       .  S
O783        C788   1.284       .  A
O784       Ni786   1.923       .  S
O784        C787   1.279       .  A
Ni785      Ni786   2.390       .  S
C789       C2013   1.470       .  S
C791       N1116   1.352       .  A
C791        N796   1.351   1_556  A
C791        C904   1.476       .  S
N792       C1115   1.352       .  A
N792        C793   1.354       .  A
C793       N1118   1.370       .  A
C793        C853   1.474       .  S
N794       C1117   1.370       .  A
N794        C795   1.370   1_556  A
C795        N796   1.354       .  A
C797       N1122   1.351       .  A
C797        N802   1.350       .  A
C797        C907   1.475       .  S
N798       C1121   1.351       .  A
N798        C799   1.354       .  A
C799       N1124   1.371       .  A
N800       C1123   1.371       .  A
N800        C801   1.370       .  A
C801        N802   1.353       .  A
C801        C827   1.475       .  S
C803       N2100   1.351       .  A
C803       N2104   1.350       .  A
C803        C894   1.477       .  S
N804       C2099   1.351       .  A
N804        C805   1.354   1_655  A
C805        N806   1.369       .  A
N806        C807   1.369       .  A
C807        N808   1.353       .  A
C807        C867   1.471       .  S
N808       C2099   1.351   1_455  A
C809        N810   1.349       .  A
C809        N814   1.352       .  A
C809        C897   1.478       .  S
N810        C811   1.353       .  A
C811        N812   1.369       .  A
C811        C882   1.471       .  S
N812        C813   1.369       .  A
C813        N814   1.355       .  A
C813        C825   1.473       .  S
O815       Ni823   1.920       .  S
O815        C825   1.285       .  A
O816       Ni823   1.926       .  S
O816        C826   1.280       .  A
O817       Ni823   1.925       .  S
O817        C827   1.279       .  A
O818       Ni823   1.919       .  S
O818        C828   1.285       .  A
O819       Ni824   1.926       .  S
O819        C828   1.279       .  A
O820       Ni824   1.919       .  S
O820        C827   1.285       .  A
O821       Ni824   1.916       .  S
O821        C826   1.283       .  A
O822       Ni824   1.923       .  S
O822        C825   1.279       .  A
Ni823      Ni824   2.389       .  S
C829        N830   1.349       .  A
C829        N834   1.350       .  A
C829        C884   1.465       .  S
N830        C831   1.354       .  A
N832        C833   1.369       .  A
C833        C866   1.472   1_545  S
C835        N836   1.350       .  A
C835        N840   1.350       .  A
C835        C887   1.465       .  S
N836        C837   1.354       .  A
C837        N838   1.368       .  A
C837        C851   1.471       .  S
N838        C839   1.369       .  A
C839        N840   1.356       .  A
C839        C879   1.472       .  S
O841       Ni849   1.920       .  S
O841        C851   1.279       .  A
O842       Ni849   1.916       .  S
O842        C852   1.283       .  A
O843       Ni849   1.920       .  S
O843        C853   1.285       .  A
O844       Ni849   1.926       .  S
O844        C854   1.280       .  A
O845       Ni850   1.918       .  S
O845        C854   1.284       .  A
O846       Ni850   1.923       .  S
O846        C853   1.279       .  A
O847       Ni850   1.925       .  S
O847        C852   1.280       .  A
O848       Ni850   1.919       .  S
O848        C851   1.284       .  A
Ni849      Ni850   2.389       .  S
O855       Ni863   1.924       .  S
O855        C865   1.279       .  A
O856       Ni863   1.918       .  S
O856        C866   1.284       .  A
O857       Ni863   1.920       .  S
O857        C867   1.285       .  A
O858       Ni863   1.928       .  S
O858        C868   1.281       .  A
O859       Ni864   1.914       .  S
O859        C868   1.283       .  A
O860       Ni864   1.918       .  S
O860        C867   1.278       .  A
O861       Ni864   1.923       .  S
O861        C866   1.279       .  A
O862       Ni864   1.918       .  S
O862        C865   1.285       .  A
Ni863      Ni864   2.389       .  S
O869       Ni877   1.925       .  S
O869        C879   1.280       .  A
O870       Ni877   1.920       .  S
O870        C880   1.284       .  A
O871       Ni877   1.917       .  S
O871        C881   1.284       .  A
O872       Ni877   1.922       .  S
O872        C882   1.279       .  A
O873       Ni878   1.916       .  S
O873        C882   1.284       .  A
O874       Ni878   1.923       .  S
O874        C881   1.279       .  A
O875       Ni878   1.922       .  S
O875        C880   1.279       .  A
O876       Ni878   1.915       .  S
O876        C879   1.283       .  A
Ni877      Ni878   2.390       .  S
C883        C884   1.404       .  A
C883        C888   1.393       .  A
C883        F890   1.358       .  S
C884        C885   1.405       .  A
C885        C886   1.395       .  A
C885        F892   1.358       .  S
C886        C887   1.404       .  A
C886        F891   1.358       .  S
C887        C888   1.405       .  A
C888        F889   1.358       .  S
C893        C894   1.408       .  A
C893        C898   1.393       .  A
C893        F900   1.358       .  S
C894        C895   1.408       .  A
C895        C896   1.393       .  A
C895        F902   1.358       .  S
C896        C897   1.410       .  A
C896        F901   1.358       .  S
C897        C898   1.408       .  A
C898        F899   1.358       .  S
C903       C1228   1.407       .  A
C903        C908   1.394       .  A
C903        F910   1.358       .  S
C904       C1227   1.407       .  A
C904        C905   1.408   1_556  A
C905        C906   1.395       .  A
C905        F912   1.358       .  S
C906       C1231   1.407   1_554  A
C906        F911   1.358       .  S
C907       C1230   1.407       .  A
C907        C908   1.408       .  A
C908        F909   1.358       .  S
C913        C914   1.408       .  A
C913        C918   1.395       .  A
C913        F920   1.358       .  S
C914        C915   1.408       .  A
C915        C916   1.394       .  A
C915        F922   1.358       .  S
C916        C917   1.407       .  A
C916        F921   1.358       .  S
C917        C918   1.408       .  A
C918        F919   1.358       .  S
C923        C924   1.408       .  A
C923        C928   1.393       .  A
C923        F930   1.358       .  S
C924        C925   1.409       .  A
C925        C926   1.395       .  A
C925        F932   1.358       .  S
C926        C927   1.408       .  A
C926        F931   1.358       .  S
C927        C928   1.409       .  A
C928        F929   1.358       .  S
C933       C2554   1.410       .  A
C933        C938   1.393       .  A
C933        F940   1.358       .  S
C934       C2553   1.409       .  A
C934        C935   1.407   1_554  A
C935        C936   1.395       .  A
C935        F942   1.358       .  S
C936       C1261   1.409   1_556  A
C936        F941   1.358       .  S
C937       C1260   1.410       .  A
C937       C2234   1.407       .  A
C938       C2233   1.407       .  A
C938        F939   1.358       .  S
C943       C1268   1.407       .  A
C943        C948   1.394       .  A
C943        F950   1.358       .  S
C944       C1267   1.408       .  A
C945        C946   1.396       .  A
C945        F952   1.358       .  S
C946        F951   1.358       .  S
C947        C948   1.407   1_556  A
C948        F949   1.358       .  S
C953        C954   1.405       .  A
C953        C958   1.396       .  A
C953        F960   1.358       .  S
C954        C955   1.404       .  A
C955        C956   1.394       .  A
C955        F962   1.358       .  S
C956        C957   1.405       .  A
C956        F961   1.358       .  S
C957       C1957   1.466       .  S
C957        C958   1.405       .  A
C958        F959   1.358       .  S
C963        C964   1.407       .  A
C963        C968   1.394       .  A
C963        F970   1.358       .  S
C964        C965   1.406       .  A
C965        C966   1.393       .  A
C965        F972   1.358       .  S
C966        C967   1.406       .  A
C966        F971   1.358       .  S
C967        C968   1.405       .  A
C968        F969   1.358       .  S
C973        N974   1.350       .  A
C973        N978   1.350       .  A
C973       C1288   1.470       .  S
N974        C975   1.354       .  A
C975       N2272   1.370       .  A
C975       C1024   1.472       .  S
N976       C2271   1.370       .  A
N976        C977   1.369       .  A
C977       N2274   1.354       .  A
C977       C1097   1.473       .  S
N978       C2273   1.353       .  A
C979        N980   1.350       .  A
C979        N984   1.350       .  A
N980        C981   1.354       .  A
C981        N982   1.370       .  A
C981       C1008   1.474       .  S
N982        C983   1.371       .  A
C983        N984   1.353       .  A
C983       C1071   1.473       .  S
C985        N986   1.351   1_655  A
C985        N990   1.350   1_655  A
C985       C2577   1.465       .  S
N986        C987   1.356       .  A
C987        N988   1.370       .  A
C987       C1178   1.475       .  S
N988        C989   1.369       .  A
C989        N990   1.354       .  A
C989       C1023   1.474       .  S
C991        N992   1.350       .  A
C991        N996   1.350       .  A
C991       C1278   1.464       .  S
C993        N994   1.371       .  A
C993       C1152   1.476   1_545  S
C995        N996   1.354       .  A
C995       C1007   1.475       .  S
O998      Ni1005   1.917       .  S
O998       C1008   1.285       .  A
O999      Ni1005   1.917       .  S
O999       C1009   1.284       .  A
O1001     Ni1006   1.915       .  S
O1001      C1010   1.284       .  A
O1002     Ni1006   1.923       .  S
O1002      C1009   1.279       .  A
O1003     Ni1006   1.925       .  S
O1003      C1008   1.279       .  A
O1004     Ni1006   1.919       .  S
O1004      C1007   1.285       .  A
Ni1005    Ni1006   2.390       .  S
C1009      C1085   1.472       .  S
C1010      C1155   1.471       .  S
O1011     Ni1019   1.916       .  S
O1011      C1021   1.284       .  A
O1012     Ni1019   1.923       .  S
O1012      C1022   1.279       .  A
O1013     Ni1019   1.925       .  S
O1013      C1023   1.279       .  A
O1014     Ni1019   1.917       .  S
O1014      C1024   1.284       .  A
O1015     Ni2316   1.923       .  S
O1015      C2320   1.279       .  A
O1016     Ni1020   1.918   1_455  S
O1016      C1023   1.284       .  A
O1017     Ni1020   1.918   1_455  S
O1017      C1022   1.284       .  A
O1018     Ni1020   1.924       .  S
O1018      C1021   1.279   1_655  A
Ni1019    Ni1020   2.390   1_455  S
Ni1020     O2311   1.923       .  S
C1021      C1051   1.472       .  S
C1022      C1129   1.473       .  S
C1024      O2311   1.279   1_455  A
C1025      N1030   1.351       .  A
C1025      C1271   1.478       .  S
N1026      C1027   1.355       .  A
N1028      C1029   1.368       .  A
C1029      N1030   1.355       .  A
C1029      C1112   1.471       .  S
C1031      N1032   1.351   1_554  A
C1031      C1268   1.477       .  S
N1032      C1033   1.356       .  A
C1033      N1034   1.369   1_556  A
C1035      N1036   1.355       .  A
C1035      C1073   1.473       .  S
C1037      N1042   1.349       .  A
C1037      C1258   1.479       .  S
N1038      C1039   1.357       .  A
C1039      C1176   1.474       .  S
N1040      C1041   1.367       .  A
C1041      N1042   1.352       .  A
C1041      C2409   1.469   1_455  S
C1043      N1048   1.350   1_554  A
C1043      C1261   1.477       .  S
N1044      C1045   1.356       .  A
C1045      C2395   1.475   1_455  S
N1046      C1047   1.369   1_554  A
C1047      N1048   1.354       .  A
C1047      C1189   1.473       .  S
C1049      N1050   1.350       .  A
C1049      N1054   1.350       .  A
C1049      C1251   1.467       .  S
N1050      C1051   1.354       .  A
C1051      N2348   1.369       .  A
N1052      C2347   1.369       .  A
N1052      C1053   1.369       .  A
C1053      N2350   1.355       .  A
C1053      C1111   1.472       .  S
N1054      C2349   1.355       .  A
C1055      N1056   1.351       .  A
C1055      N1060   1.350       .  A
C1055      C1248   1.468       .  S
N1056      C1057   1.356       .  A
C1057      N1058   1.368       .  A
C1057      C1074   1.472       .  S
N1058      C1059   1.368       .  A
C1059      N1060   1.355       .  A
C1059      C1205   1.472       .  S
O1061     Ni1069   1.919       .  S
O1061      C1071   1.285       .  A
O1062     Ni1069   1.926       .  S
O1062      C1072   1.279       .  A
O1063     Ni1069   1.922       .  S
O1063      C1073   1.279       .  A
O1064     Ni1069   1.916       .  S
O1064      C1074   1.283       .  A
O1065     Ni1070   1.925       .  S
O1065      C1074   1.280       .  A
O1066     Ni1070   1.920       .  S
O1066      C1073   1.285       .  A
O1067     Ni1070   1.916       .  S
O1067      C1072   1.284       .  A
O1068     Ni1070   1.922       .  S
O1068      C1071   1.278       .  A
Ni1069    Ni1070   2.390       .  S
C1072      C1119   1.474       .  S
C1075      N1076   1.352       .  A
C1075      N1080   1.352       .  A
C1075      C1238   1.477       .  S
N1076      C1077   1.355       .  A
C1077      N1078   1.368       .  A
C1077      C1100   1.474       .  S
N1078      C1079   1.368       .  A
C1079      N1080   1.354       .  A
C1079      C1204   1.473       .  S
C1081      C1241   1.475       .  S
N1082      C1083   1.354       .  A
C1083      N1084   1.369       .  A
C1083      C1114   1.472       .  S
N1084      C1085   1.369       .  A
C1085      N1086   1.355       .  A
O1087     Ni1095   1.924       .  S
O1087      C1097   1.279       .  A
O1088     Ni1095   1.919       .  S
O1088      C1098   1.285       .  A
O1089     Ni1095   1.920       .  S
O1089      C1099   1.285       .  A
O1090     Ni1095   1.925       .  S
O1090      C1100   1.280       .  A
O1091     Ni1096   1.918       .  S
O1091      C1100   1.284       .  A
O1092     Ni1096   1.925       .  S
O1092      C1099   1.280       .  A
O1093     Ni1096   1.925       .  S
O1093      C1098   1.279       .  A
O1094     Ni1096   1.917       .  S
O1094      C1097   1.284       .  A
Ni1095    Ni1096   2.389       .  S
C1098      C1123   1.475       .  S
C1099      C2341   1.475       .  S
O1101     Ni1109   1.917       .  S
O1101      C1111   1.284       .  A
O1102     Ni1109   1.924       .  S
O1102      C1112   1.279       .  A
O1103     Ni1109   1.920       .  S
O1103      C1113   1.278       .  A
O1104     Ni1109   1.915       .  S
O1104      C1114   1.284       .  A
O1105     Ni1110   1.924       .  S
O1105      C1114   1.279       .  A
O1106     Ni1110   1.915       .  S
O1106      C1113   1.284       .  A
O1107     Ni1110   1.916       .  S
O1107      C1112   1.284       .  A
O1108     Ni1110   1.923       .  S
O1108      C1111   1.279       .  A
Ni1109    Ni1110   2.390       .  S
C1113      C2337   1.469       .  S
C1115      N1120   1.351       .  A
C1115      C1228   1.476       .  S
N1116      C1117   1.354       .  A
C1117      C1177   1.475       .  S
N1118      C1119   1.369       .  A
C1119      N1120   1.354       .  A
C1121      N1126   1.350   1_554  A
C1121      C1231   1.475   1_554  S
N1122      C1123   1.355       .  A
N1124      C1125   1.370   1_554  A
C1125      N1126   1.353       .  A
C1125      C1151   1.474       .  S
C1127      N2424   1.351       .  A
C1127      N2428   1.351       .  A
C1127      C1218   1.478       .  S
N1128      C2423   1.351       .  A
N1128      C1129   1.355   1_655  A
C1129      N1130   1.369       .  A
N1130      C1131   1.369       .  A
C1131      N1132   1.353       .  A
C1131      C1191   1.472       .  S
N1132      C2423   1.351   1_455  A
C1133      N1134   1.350       .  A
C1133      N1138   1.352       .  A
C1133      C1221   1.478       .  S
N1134      C1135   1.353       .  A
C1135      N1136   1.368       .  A
C1135      C1206   1.471       .  S
N1136      C1137   1.369       .  A
C1137      N1138   1.355       .  A
C1137      C1149   1.473       .  S
O1139     Ni1147   1.919       .  S
O1139      C1149   1.284       .  A
O1140     Ni1147   1.926       .  S
O1140      C1150   1.280       .  A
O1141     Ni1147   1.925       .  S
O1141      C1151   1.279       .  A
O1142     Ni1147   1.918       .  S
O1142      C1152   1.285       .  A
O1143     Ni1148   1.927       .  S
O1143      C1152   1.279       .  A
O1144     Ni1148   1.919       .  S
O1144      C1151   1.285       .  A
O1145     Ni1148   1.916       .  S
O1145      C1150   1.283       .  A
O1146     Ni1148   1.923       .  S
O1146      C1149   1.279       .  A
Ni1147    Ni1148   2.389       .  S
C1153      N1154   1.349       .  A
C1153      N1158   1.349       .  A
C1153      C1208   1.464       .  S
N1154      C1155   1.354       .  A
N1156      C1157   1.369       .  A
C1157      C1190   1.471   1_545  S
C1159      N1160   1.350       .  A
C1159      N1164   1.350       .  A
C1159      C1211   1.464       .  S
N1160      C1161   1.354       .  A
C1161      N1162   1.368       .  A
C1161      C1175   1.470       .  S
N1162      C1163   1.368       .  A
C1163      N1164   1.355       .  A
C1163      C1203   1.471       .  S
O1165     Ni1173   1.920       .  S
O1165      C1175   1.278       .  A
O1166     Ni1173   1.916       .  S
O1166      C1176   1.283       .  A
O1167     Ni1173   1.921       .  S
O1167      C1177   1.285       .  A
O1168     Ni1173   1.927       .  S
O1168      C1178   1.280       .  A
O1169     Ni1174   1.918       .  S
O1169      C1178   1.284       .  A
O1170     Ni1174   1.923       .  S
O1170      C1177   1.279       .  A
O1171     Ni1174   1.927       .  S
O1171      C1176   1.280       .  A
O1172     Ni1174   1.919       .  S
O1172      C1175   1.284       .  A
Ni1173    Ni1174   2.389       .  S
O1179     Ni1187   1.924       .  S
O1179      C1189   1.279       .  A
O1180     Ni1187   1.916       .  S
O1180      C1190   1.284       .  A
O1181     Ni1187   1.921       .  S
O1181      C1191   1.285       .  A
O1182     Ni1187   1.929       .  S
O1182      C1192   1.281       .  A
O1183     Ni1188   1.916       .  S
O1183      C1192   1.283       .  A
O1184     Ni1188   1.920       .  S
O1184      C1191   1.278       .  A
O1185     Ni1188   1.922       .  S
O1185      C1190   1.279       .  A
O1186     Ni1188   1.917       .  S
O1186      C1189   1.284       .  A
Ni1187    Ni1188   2.389       .  S
O1193     Ni1201   1.924       .  S
O1193      C1203   1.280       .  A
O1194     Ni1201   1.920       .  S
O1194      C1204   1.285       .  A
O1195     Ni1201   1.916       .  S
O1195      C1205   1.284       .  A
O1196     Ni1201   1.922       .  S
O1196      C1206   1.279       .  A
O1197     Ni1202   1.916       .  S
O1197      C1206   1.284       .  A
O1198     Ni1202   1.924       .  S
O1198      C1205   1.280       .  A
O1199     Ni1202   1.921       .  S
O1199      C1204   1.279       .  A
O1200     Ni1202   1.914       .  S
O1200      C1203   1.283       .  A
Ni1201    Ni1202   2.390       .  S
C1207      C1208   1.404       .  A
C1207      C1212   1.393       .  A
C1207      F1214   1.358       .  S
C1208      C1209   1.405       .  A
C1209      C1210   1.394       .  A
C1209      F1216   1.358       .  S
C1210      C1211   1.404       .  A
C1210      F1215   1.358       .  S
C1211      C1212   1.404       .  A
C1212      F1213   1.358       .  S
C1217      C1218   1.409       .  A
C1217      C1222   1.393       .  A
C1217      F1224   1.358       .  S
C1218      C1219   1.408       .  A
C1219      C1220   1.393       .  A
C1219      F1226   1.358       .  S
C1220      C1221   1.410       .  A
C1220      F1225   1.358       .  S
C1221      C1222   1.408       .  A
C1222      F1223   1.358       .  S
C1227      C1232   1.393       .  A
C1227      F1234   1.358       .  S
C1228      C1229   1.408       .  A
C1229      C1230   1.394       .  A
C1229      F1236   1.358       .  S
C1230      F1235   1.358       .  S
C1231      C1232   1.407       .  A
C1232      F1233   1.358       .  S
C1237      C1238   1.408       .  A
C1237      C1242   1.395       .  A
C1237      F1244   1.358       .  S
C1238      C1239   1.408       .  A
C1239      C1240   1.393       .  A
C1239      F1246   1.358       .  S
C1240      C1241   1.407       .  A
C1240      F1245   1.358       .  S
C1241      C1242   1.408       .  A
C1242      F1243   1.358       .  S
C1247      C1248   1.406       .  A
C1247      C1252   1.396       .  A
C1247      F1254   1.358       .  S
C1248      C1249   1.405       .  A
C1249      C1250   1.393       .  A
C1249      F1256   1.358       .  S
C1250      C1251   1.405       .  A
C1250      F1255   1.358       .  S
C1251      C1252   1.405       .  A
C1252      F1253   1.358       .  S
C1257      C2230   1.409       .  A
C1257      C1262   1.393       .  A
C1257      F1264   1.358       .  S
C1258      C2229   1.410       .  A
C1258      C1259   1.407       .  A
C1259      C1260   1.395       .  A
C1259      F1266   1.358       .  S
C1260      F1265   1.358       .  S
C1261      C2558   1.406   1_455  A
C1262      C2557   1.406       .  A
C1262      F1263   1.358       .  S
C1267      C1272   1.394       .  A
C1267      F1274   1.358       .  S
C1269      C1270   1.397       .  A
C1269      F1276   1.358       .  S
C1270      F1275   1.358       .  S
C1271      C1272   1.408       .  A
C1272      F1273   1.358       .  S
C1277      C1278   1.405       .  A
C1277      C1282   1.396       .  A
C1277      F1284   1.358       .  S
C1278      C1279   1.403       .  A
C1279      C1280   1.394       .  A
C1279      F1286   1.358       .  S
C1280      C1281   1.405       .  A
C1280      F1285   1.358       .  S
C1281      C2281   1.465       .  S
C1281      C1282   1.404       .  A
C1282      F1283   1.358       .  S
C1287      C1288   1.406       .  A
C1287      C1292   1.394       .  A
C1287      F1294   1.358       .  S
C1288      C1289   1.406       .  A
C1289      C1290   1.393       .  A
C1289      F1296   1.358       .  S
C1290      C1291   1.406       .  A
C1290      F1295   1.358       .  S
C1291      C1292   1.406       .  A
C1292      F1293   1.358       .  S
C1297      N1298   1.349       .  A
C1297      N1302   1.350       .  A
C1297      C1612   1.467       .  S
N1298      C1299   1.353       .  A
C1299      C1348   1.469       .  S
N1300      C1301   1.369       .  A
C1301      C1421   1.471   1_455  S
C1303      N1304   1.350   1_565  A
C1303      N1308   1.349   1_565  A
C1303      C2263   1.468       .  S
N1304      C1305   1.354       .  A
C1305      N1306   1.370       .  A
C1305      C1332   1.473       .  S
N1306      C1307   1.370       .  A
C1307      N1308   1.352       .  A
C1307      C1395   1.472       .  S
C1309      N1310   1.351       .  A
C1309      N1314   1.350       .  A
N1310      C1311   1.356       .  A
C1311      N1312   1.370       .  A
C1311      C1502   1.474       .  S
N1312      C1313   1.369       .  A
C1313      N1314   1.354       .  A
C1313      C1347   1.472       .  S
C1315      N1316   1.350       .  A
C1315      N1320   1.349       .  A
C1315      C1602   1.463       .  S
N1316      C1965   1.355       .  A
C1317      N1964   1.355       .  A
C1317      N1318   1.370       .  A
C1317      C1476   1.474       .  S
N1318      C1967   1.370       .  A
C1319      N1966   1.371       .  A
C1319      N1320   1.353       .  A
C1319      C1331   1.473       .  S
O1321     Ni1977   1.924       .  S
O1321      C1979   1.279       .  A
O1322     Ni1329   1.917   1_545  S
O1322      C1332   1.284       .  A
O1323     Ni1329   1.919   1_545  S
O1323      C1333   1.284       .  A
O1324     Ni1977   1.922       .  S
O1324      C1982   1.279       .  A
O1325     Ni1330   1.915       .  S
O1325      C1334   1.284       .  A
O1326     Ni1330   1.924       .  S
O1326      C1333   1.279       .  A
O1327     Ni1330   1.925       .  S
O1327      C1332   1.279       .  A
O1328     Ni1330   1.918       .  S
O1328      C1331   1.285       .  A
Ni1329     O1969   1.924       .  S
Ni1329     O1972   1.924   1_565  S
Ni1329    Ni1330   2.390   1_565  S
C1331      O1969   1.279   1_545  A
C1333      C1409   1.474       .  S
C1334      C1479   1.471       .  S
C1334      O1972   1.279       .  A
O1335     Ni1343   1.916       .  S
O1335      C1345   1.284       .  A
O1336     Ni1343   1.923       .  S
O1336      C1346   1.279       .  A
O1337     Ni1343   1.924       .  S
O1337      C1347   1.279       .  A
O1338     Ni1343   1.915       .  S
O1338      C1348   1.284       .  A
O1340     Ni1344   1.916       .  S
O1340      C1347   1.284       .  A
O1341     Ni1344   1.918       .  S
O1341      C1346   1.284       .  A
O1342     Ni1344   1.924       .  S
O1342      C1345   1.279       .  A
Ni1343    Ni1344   2.390       .  S
C1345      C1375   1.472       .  S
C1346      C1453   1.473       .  S
C1349      N1674   1.351   1_554  A
C1349      N1354   1.351       .  A
C1349      C1595   1.478       .  S
N1350      C1673   1.352       .  A
N1350      C1351   1.356       .  A
C1351      N1676   1.368       .  A
C1351      C2122   1.473   1_545  S
N1352      C1675   1.369   1_554  A
N1352      C1353   1.368       .  A
C1353      N1354   1.355       .  A
C1353      C1436   1.473       .  S
C1355      N1356   1.351       .  A
C1355      N1684   1.352       .  A
C1355      C1592   1.478       .  S
N1356      C1357   1.356       .  A
C1357      N1358   1.368       .  A
C1357      C2164   1.473   1_545  S
N1358      C1683   1.368       .  A
C1359      N1682   1.369       .  A
C1359      N1360   1.354       .  A
C1359      C1397   1.474       .  S
N1360      C1679   1.351       .  A
C1361      N1686   1.353   1_554  A
C1361      N1366   1.349       .  A
C1361      C1582   1.480       .  S
N1362      C1685   1.353       .  A
N1362      C1363   1.357       .  A
C1363      N1688   1.369       .  A
C1363      C1500   1.473       .  S
N1364      C1687   1.368       .  A
N1364      C1365   1.367   1_556  A
C1365      N1366   1.352       .  A
C1367      N1692   1.352       .  A
C1367      N1372   1.350       .  A
C1367      C1585   1.478       .  S
N1368      C1691   1.352       .  A
N1368      C1369   1.356       .  A
C1369      N1694   1.369       .  A
N1370      C1693   1.369       .  A
N1370      C1371   1.369       .  A
C1371      N1372   1.353       .  A
C1371      C1513   1.472       .  S
C1373      N1374   1.350       .  A
C1373      N1378   1.351       .  A
C1373      C1575   1.471       .  S
N1374      C1375   1.354       .  A
N1376      C1377   1.369       .  A
C1377      C1435   1.472   1_455  S
C1379      N1380   1.352       .  A
C1379      N1384   1.350       .  A
C1379      C1572   1.472       .  S
N1380      C1381   1.357       .  A
C1381      N1382   1.368       .  A
C1381      C1398   1.472       .  S
N1382      C1383   1.368       .  A
C1383      N1384   1.354       .  A
C1383      C1529   1.471       .  S
O1385     Ni1393   1.919       .  S
O1385      C1395   1.285       .  A
O1386     Ni1393   1.925       .  S
O1386      C1396   1.279       .  A
O1387     Ni1393   1.923       .  S
O1387      C1397   1.279       .  A
O1388     Ni1393   1.915       .  S
O1388      C1398   1.283       .  A
O1389     Ni1394   1.925       .  S
O1389      C1398   1.280       .  A
O1390     Ni1394   1.920       .  S
O1390      C1397   1.285       .  A
O1391     Ni1394   1.915       .  S
O1391      C1396   1.284       .  A
O1392     Ni1394   1.920       .  S
O1392      C1395   1.278       .  A
Ni1393    Ni1394   2.390       .  S
C1396      C1443   1.473       .  S
C1399      N1400   1.352       .  A
C1399      N1404   1.351       .  A
C1399      C1562   1.477       .  S
N1400      C1401   1.355       .  A
C1401      N1402   1.368       .  A
C1401      C1424   1.472       .  S
N1402      C1403   1.368       .  A
C1403      N1404   1.354       .  A
C1403      C1528   1.472       .  S
C1405      N2054   1.349       .  A
C1405      N2058   1.350       .  A
C1405      C1565   1.476       .  S
N1406      C2053   1.350   1_545  A
N1406      C1407   1.355       .  A
C1407      N1408   1.369       .  A
C1407      C1438   1.473       .  S
N1408      C1409   1.370       .  A
C1409      N1410   1.355       .  A
N1410      C2053   1.351   1_545  A
O1411     Ni1419   1.923       .  S
O1411      C1421   1.279       .  A
O1412     Ni1419   1.917       .  S
O1412      C1422   1.285       .  A
O1413     Ni1419   1.918       .  S
O1413      C1423   1.284       .  A
O1414     Ni1419   1.923       .  S
O1414      C1424   1.279       .  A
O1415     Ni1420   1.918       .  S
O1415      C1424   1.284       .  A
O1416     Ni1420   1.925       .  S
O1416      C1423   1.280       .  A
O1417     Ni1420   1.923       .  S
O1417      C1422   1.279       .  A
O1418     Ni1420   1.916       .  S
O1418      C1421   1.284       .  A
Ni1419    Ni1420   2.390       .  S
C1422      C1447   1.473       .  S
O1425     Ni1433   1.918       .  S
O1425      C1435   1.284       .  A
O1426     Ni1433   1.925       .  S
O1426      C1436   1.280       .  A
O1427     Ni1433   1.920       .  S
O1427      C1437   1.278       .  A
O1428     Ni1433   1.916       .  S
O1428      C1438   1.284       .  A
O1429     Ni1434   1.925       .  S
O1429      C1438   1.280       .  A
O1430     Ni1434   1.916       .  S
O1430      C1437   1.284       .  A
O1431     Ni1434   1.917       .  S
O1431      C1436   1.284       .  A
O1432     Ni1434   1.922       .  S
O1432      C1435   1.279       .  A
Ni1433    Ni1434   2.390       .  S
C1439      N1764   1.351       .  A
C1439      N1444   1.351   1_556  A
C1439      C1552   1.476       .  S
N1440      C1763   1.352       .  A
N1440      C1441   1.354       .  A
C1441      N1766   1.370       .  A
C1441      C1501   1.474       .  S
N1442      C1765   1.369       .  A
N1442      C1443   1.369   1_556  A
C1443      N1444   1.354       .  A
C1445      N1770   1.351       .  A
C1445      N1450   1.350       .  A
C1445      C1555   1.475       .  S
N1446      C1769   1.350       .  A
N1446      C1447   1.354       .  A
C1447      N1772   1.370       .  A
N1448      C1771   1.370       .  A
N1448      C1449   1.370       .  A
C1449      N1450   1.353       .  A
C1449      C1475   1.474       .  S
C1451      C1542   1.476       .  S
N1452      C1453   1.354       .  A
C1453      N1454   1.369       .  A
N1454      C1455   1.369       .  A
C1455      N1456   1.353       .  A
C1455      C1515   1.471       .  S
C1457      N1458   1.349       .  A
C1457      N1462   1.351       .  A
C1457      C1545   1.477       .  S
N1458      C1459   1.353       .  A
C1459      N1460   1.368       .  A
C1459      C1530   1.470       .  S
N1460      C1461   1.369       .  A
C1461      N1462   1.355       .  A
C1461      C1473   1.472       .  S
O1463     Ni1471   1.919       .  S
O1463      C1473   1.284       .  A
O1464     Ni1471   1.926       .  S
O1464      C1474   1.280       .  A
O1465     Ni1471   1.924       .  S
O1465      C1475   1.279       .  A
O1466     Ni1471   1.917       .  S
O1466      C1476   1.284       .  A
O1467     Ni1472   1.925       .  S
O1467      C1476   1.279       .  A
O1468     Ni1472   1.919       .  S
O1468      C1475   1.285       .  A
O1469     Ni1472   1.915       .  S
O1469      C1474   1.283       .  A
O1470     Ni1472   1.921       .  S
O1470      C1473   1.279       .  A
Ni1471    Ni1472   2.389       .  S
C1474      C1999   1.472       .  S
C1477      N1478   1.349       .  A
C1477      N1482   1.350       .  A
C1477      C1532   1.464       .  S
N1478      C1479   1.354       .  A
C1479      N2128   1.368       .  A
N1480      C2127   1.368       .  A
N1480      C1481   1.368       .  A
C1481      N2130   1.355       .  A
C1481      C1514   1.470       .  S
N1482      C2129   1.355       .  A
C1483      N1484   1.350       .  A
C1483      N1488   1.350       .  A
C1483      C1535   1.463       .  S
N1484      C1485   1.354       .  A
C1485      N1486   1.368       .  A
C1485      C1499   1.471       .  S
N1486      C1487   1.369       .  A
C1487      N1488   1.355       .  A
C1487      C1527   1.471       .  S
O1489     Ni1497   1.920       .  S
O1489      C1499   1.278       .  A
O1490     Ni1497   1.916       .  S
O1490      C1500   1.283       .  A
O1491     Ni1497   1.921       .  S
O1491      C1501   1.285       .  A
O1492     Ni1497   1.926       .  S
O1492      C1502   1.280       .  A
O1493     Ni1498   1.917       .  S
O1493      C1502   1.284       .  A
O1494     Ni1498   1.923       .  S
O1494      C1501   1.278       .  A
O1495     Ni1498   1.926       .  S
O1495      C1500   1.280       .  A
O1496     Ni1498   1.918       .  S
O1496      C1499   1.284       .  A
Ni1497    Ni1498   2.389       .  S
O1503     Ni1511   1.923       .  S
O1503      C1513   1.279       .  A
O1504     Ni1511   1.916       .  S
O1504      C1514   1.283       .  A
O1505     Ni1511   1.921       .  S
O1505      C1515   1.285       .  A
O1506     Ni1511   1.929       .  S
O1506      C1516   1.281       .  A
O1507     Ni1512   1.915       .  S
O1507      C1516   1.283       .  A
O1508     Ni1512   1.919       .  S
O1508      C1515   1.278       .  A
O1509     Ni1512   1.922       .  S
O1509      C1514   1.279       .  A
O1510     Ni1512   1.917       .  S
O1510      C1513   1.284       .  A
Ni1511    Ni1512   2.390       .  S
C1516      C2005   1.475       .  S
O1517     Ni1525   1.924       .  S
O1517      C1527   1.280       .  A
O1518     Ni1525   1.918       .  S
O1518      C1528   1.284       .  A
O1519     Ni1525   1.916       .  S
O1519      C1529   1.284       .  A
O1520     Ni1525   1.922       .  S
O1520      C1530   1.279       .  A
O1521     Ni1526   1.915       .  S
O1521      C1530   1.284       .  A
O1522     Ni1526   1.923       .  S
O1522      C1529   1.279       .  A
O1523     Ni1526   1.922       .  S
O1523      C1528   1.279       .  A
O1524     Ni1526   1.914       .  S
O1524      C1527   1.283       .  A
Ni1525    Ni1526   2.390       .  S
C1531      C1532   1.403       .  A
C1531      C1536   1.393       .  A
C1531      F1538   1.358       .  S
C1532      C1533   1.405       .  A
C1533      C1534   1.395       .  A
C1533      F1540   1.358       .  S
C1534      C1535   1.404       .  A
C1534      F1539   1.358       .  S
C1535      C1536   1.404       .  A
C1536      F1537   1.358       .  S
C1541      C1542   1.408       .  A
C1541      C1546   1.392       .  A
C1541      F1548   1.358       .  S
C1542      C1543   1.408       .  A
C1543      C1544   1.393       .  A
C1543      F1550   1.358       .  S
C1544      C1545   1.409       .  A
C1544      F1549   1.358       .  S
C1545      C1546   1.408       .  A
C1546      F1547   1.358       .  S
C1551      C1876   1.407       .  A
C1551      C1556   1.393       .  A
C1551      F1558   1.358       .  S
C1552      C1875   1.408       .  A
C1552      C1553   1.408   1_556  A
C1553      C1554   1.394       .  A
C1553      F1560   1.358       .  S
C1554      C1879   1.408       .  A
C1554      F1559   1.358       .  S
C1555      C1878   1.407       .  A
C1555      C1556   1.408       .  A
C1556      F1557   1.358       .  S
C1561      C1562   1.408       .  A
C1561      C1566   1.394       .  A
C1561      F1568   1.358       .  S
C1562      C1563   1.408       .  A
C1563      C1564   1.394       .  A
C1563      F1570   1.358       .  S
C1564      C1565   1.407       .  A
C1564      F1569   1.358       .  S
C1565      C1566   1.408       .  A
C1566      F1567   1.358       .  S
C1571      C1572   1.407       .  A
C1571      C1576   1.397       .  A
C1571      F1578   1.358       .  S
C1572      C1573   1.406       .  A
C1573      C1574   1.392       .  A
C1573      F1580   1.358       .  S
C1574      C1575   1.406       .  A
C1574      F1579   1.358       .  S
C1575      C1576   1.406       .  A
C1576      F1577   1.358       .  S
C1581      C1586   1.393   1_455  A
C1581      F1588   1.358   1_455  S
C1582      C1583   1.407   1_554  A
C1583      C1584   1.395       .  A
C1583      F1590   1.358       .  S
C1584      C1909   1.409   1_556  A
C1584      F1589   1.358       .  S
C1585      C1908   1.409       .  A
C1586      F1587   1.358       .  S
C1591      C1916   1.408       .  A
C1591      C1596   1.394       .  A
C1591      F1598   1.358       .  S
C1592      C1915   1.407       .  A
C1592      C2241   1.408   1_545  A
C1593      C2240   1.408       .  A
C1593      C1594   1.397       .  A
C1593      F1600   1.358       .  S
C1594      C2567   1.408       .  A
C1594      F1599   1.358       .  S
C1595      C2566   1.408   1_544  A
C1595      C1596   1.407       .  A
C1596      F1597   1.358       .  S
C1601      C1602   1.404       .  A
C1601      C1606   1.395       .  A
C1601      F1608   1.358       .  S
C1602      C1603   1.404       .  A
C1603      C1604   1.393       .  A
C1603      F1610   1.358       .  S
C1604      C1605   1.404       .  A
C1604      F1609   1.358       .  S
C1605      C1606   1.404       .  A
C1606      F1607   1.358       .  S
C1611      C1612   1.406       .  A
C1611      C1616   1.393       .  A
C1611      F1618   1.358       .  S
C1612      C1613   1.406       .  A
C1613      C1614   1.392       .  A
C1613      F1620   1.358       .  S
C1614      C1615   1.406       .  A
C1614      F1619   1.358       .  S
C1615      C1951   1.467       .  S
C1615      C1616   1.406       .  A
C1616      F1617   1.358       .  S
C1621      N1622   1.350       .  A
C1621      N1626   1.350       .  A
C1621      C1936   1.470       .  S
N1622      C1623   1.354       .  A
C1623      C1672   1.471       .  S
N1624      C1625   1.369       .  A
C1625      C1745   1.472   1_455  S
C1627      N1628   1.350   1_565  A
C1627      N1632   1.350   1_565  A
C1627      C2587   1.469       .  S
N1628      C1629   1.354       .  A
C1629      N1630   1.370       .  A
C1629      C1656   1.473       .  S
N1630      C1631   1.370       .  A
C1631      N1632   1.354       .  A
C1631      C1719   1.473       .  S
C1633      N1634   1.352       .  A
C1633      N1638   1.350       .  A
N1634      C1635   1.356       .  A
C1635      N1636   1.370       .  A
C1635      C1826   1.475       .  S
N1636      C1637   1.369       .  A
C1637      N1638   1.353       .  A
C1637      C1671   1.473       .  S
C1639      N1640   1.350       .  A
C1639      N1644   1.350       .  A
C1639      C1926   1.467       .  S
N1640      C2289   1.354       .  A
C1641      N2288   1.354       .  A
C1641      N1642   1.371       .  A
C1641      C1800   1.475       .  S
N1642      C2291   1.371       .  A
C1643      N2290   1.371       .  A
C1643      N1644   1.354       .  A
C1643      C1655   1.475       .  S
O1645     Ni2301   1.925       .  S
O1645      C2303   1.279       .  A
O1646     Ni1653   1.917   1_545  S
O1646      C1656   1.284       .  A
O1647     Ni1653   1.917   1_545  S
O1647      C1657   1.284       .  A
O1648     Ni2301   1.923       .  S
O1648      C2306   1.279       .  A
O1649     Ni1654   1.915       .  S
O1649      C1658   1.283       .  A
O1650     Ni1654   1.922       .  S
O1650      C1657   1.279       .  A
O1651     Ni1654   1.925       .  S
O1651      C1656   1.279       .  A
O1652     Ni1654   1.920       .  S
O1652      C1655   1.285       .  A
Ni1653     O2293   1.925       .  S
Ni1653     O2296   1.923       .  S
Ni1653    Ni1654   2.390   1_565  S
C1655      O2293   1.279   1_545  A
C1657      C1733   1.471       .  S
C1658      C1803   1.471       .  S
C1658      O2296   1.279   1_545  A
O1659     Ni1667   1.917       .  S
O1659      C1669   1.284       .  A
O1660     Ni1667   1.922       .  S
O1660      C1670   1.279       .  A
O1661     Ni1667   1.924       .  S
O1661      C1671   1.279       .  A
O1662     Ni1667   1.916       .  S
O1662      C1672   1.284       .  A
O1664     Ni1668   1.917       .  S
O1664      C1671   1.284       .  A
O1665     Ni1668   1.915       .  S
O1665      C1670   1.284       .  A
O1666     Ni1668   1.922       .  S
O1666      C1669   1.279       .  A
Ni1667    Ni1668   2.390       .  S
C1669      C1699   1.471       .  S
C1670      C1777   1.471       .  S
C1673      N1678   1.351       .  A
C1673      C1919   1.478       .  S
N1674      C1675   1.356       .  A
C1675      C2446   1.473   1_545  S
N1676      C1677   1.368       .  A
C1677      N1678   1.355       .  A
C1677      C1760   1.473       .  S
C1679      N1680   1.352   1_554  A
C1679      C1916   1.478       .  S
N1680      C1681   1.357       .  A
C1681      N1682   1.369   1_556  A
C1681      C2488   1.476   1_545  S
C1683      N1684   1.355       .  A
C1683      C1721   1.473       .  S
C1685      N1690   1.348       .  A
C1685      C1906   1.478       .  S
N1686      C1687   1.357       .  A
C1687      C1824   1.472       .  S
N1688      C1689   1.367       .  A
C1689      N1690   1.352       .  A
C1691      N1696   1.350   1_554  A
C1691      C1909   1.479       .  S
N1692      C1693   1.356       .  A
N1694      C1695   1.368   1_554  A
C1695      N1696   1.354       .  A
C1695      C1837   1.472       .  S
C1697      N1698   1.350       .  A
C1697      N1702   1.350       .  A
C1697      C1899   1.466       .  S
N1698      C1699   1.354       .  A
N1700      C1701   1.369       .  A
C1701      C1759   1.471   1_455  S
C1703      N1704   1.351       .  A
C1703      N1708   1.350       .  A
C1703      C1896   1.467       .  S
N1704      C1705   1.356       .  A
C1705      N1706   1.368       .  A
C1705      C1722   1.472       .  S
N1706      C1707   1.368       .  A
C1707      N1708   1.354       .  A
C1707      C1853   1.471       .  S
O1709     Ni1717   1.919       .  S
O1709      C1719   1.285       .  A
O1710     Ni1717   1.925       .  S
O1710      C1720   1.279       .  A
O1711     Ni1717   1.923       .  S
O1711      C1721   1.279       .  A
O1712     Ni1717   1.917       .  S
O1712      C1722   1.284       .  A
O1713     Ni1718   1.924       .  S
O1713      C1722   1.280       .  A
O1714     Ni1718   1.918       .  S
O1714      C1721   1.284       .  A
O1715     Ni1718   1.916       .  S
O1715      C1720   1.284       .  A
O1716     Ni1718   1.922       .  S
O1716      C1719   1.278       .  A
Ni1717    Ni1718   2.390       .  S
C1720      C1767   1.473       .  S
C1723      N1724   1.352       .  A
C1723      N1728   1.352       .  A
C1723      C1886   1.477       .  S
N1724      C1725   1.355       .  A
C1725      N1726   1.368       .  A
C1725      C1748   1.473       .  S
N1726      C1727   1.368       .  A
C1727      N1728   1.355       .  A
C1727      C1852   1.472       .  S
C1729      N2378   1.350       .  A
C1729      N2382   1.350       .  A
C1729      C1889   1.475       .  S
N1730      C2377   1.350   1_545  A
N1730      C1731   1.354       .  A
C1731      N1732   1.368       .  A
C1731      C1762   1.470       .  S
N1732      C1733   1.369       .  A
C1733      N1734   1.354       .  A
N1734      C2377   1.350   1_545  A
O1735     Ni1743   1.923       .  S
O1735      C1745   1.279       .  A
O1736     Ni1743   1.917       .  S
O1736      C1746   1.285       .  A
O1737     Ni1743   1.919       .  S
O1737      C1747   1.284       .  A
O1738     Ni1743   1.924       .  S
O1738      C1748   1.279       .  A
O1739     Ni1744   1.918       .  S
O1739      C1748   1.284       .  A
O1740     Ni1744   1.925       .  S
O1740      C1747   1.280       .  A
O1741     Ni1744   1.923       .  S
O1741      C1746   1.279       .  A
O1742     Ni1744   1.917       .  S
O1742      C1745   1.284       .  A
Ni1743    Ni1744   2.389       .  S
C1746      C1771   1.473       .  S
O1749     Ni1757   1.918       .  S
O1749      C1759   1.284       .  A
O1750     Ni1757   1.925       .  S
O1750      C1760   1.280       .  A
O1751     Ni1757   1.919       .  S
O1751      C1761   1.278       .  A
O1752     Ni1757   1.913       .  S
O1752      C1762   1.283       .  A
O1753     Ni1758   1.923       .  S
O1753      C1762   1.279       .  A
O1754     Ni1758   1.915       .  S
O1754      C1761   1.284       .  A
O1755     Ni1758   1.916       .  S
O1755      C1760   1.283       .  A
O1756     Ni1758   1.922       .  S
O1756      C1759   1.279       .  A
Ni1757    Ni1758   2.390       .  S
C1763      N1768   1.350       .  A
C1763      C1876   1.476       .  S
N1764      C1765   1.354       .  A
C1765      C1825   1.473       .  S
N1766      C1767   1.370       .  A
C1767      N1768   1.353       .  A
C1769      N1774   1.350   1_554  A
C1769      C1879   1.475       .  S
N1770      C1771   1.354       .  A
N1772      C1773   1.370   1_554  A
C1773      N1774   1.354       .  A
C1773      C1799   1.474       .  S
C1775      C1866   1.476       .  S
N1776      C1777   1.354       .  A
C1777      N1778   1.368       .  A
N1778      C1779   1.368       .  A
C1779      N1780   1.353       .  A
C1779      C1839   1.470       .  S
C1781      N1782   1.349       .  A
C1781      N1786   1.351       .  A
C1781      C1869   1.477       .  S
N1782      C1783   1.353       .  A
C1783      N1784   1.368       .  A
C1783      C1854   1.470       .  S
N1784      C1785   1.368       .  A
C1785      N1786   1.355       .  A
C1785      C1797   1.472       .  S
O1787     Ni1795   1.918       .  S
O1787      C1797   1.284       .  A
O1788     Ni1795   1.926       .  S
O1788      C1798   1.280       .  A
O1789     Ni1795   1.924       .  S
O1789      C1799   1.279       .  A
O1790     Ni1795   1.918       .  S
O1790      C1800   1.285       .  A
O1791     Ni1796   1.925       .  S
O1791      C1800   1.279       .  A
O1792     Ni1796   1.918       .  S
O1792      C1799   1.285       .  A
O1793     Ni1796   1.915       .  S
O1793      C1798   1.284       .  A
O1794     Ni1796   1.922       .  S
O1794      C1797   1.279       .  A
Ni1795    Ni1796   2.389       .  S
C1798      C2323   1.473       .  S
C1801      N1802   1.349       .  A
C1801      N1806   1.350       .  A
C1801      C1856   1.464       .  S
N1802      C1803   1.355       .  A
C1803      N2452   1.368       .  A
N1804      C2451   1.368       .  A
N1804      C1805   1.369       .  A
C1805      N2454   1.355       .  A
C1805      C1838   1.471       .  S
N1806      C2453   1.355       .  A
C1807      N1808   1.350       .  A
C1807      N1812   1.350       .  A
C1807      C1859   1.464       .  S
N1808      C1809   1.354       .  A
C1809      N1810   1.368       .  A
C1809      C1823   1.471       .  S
N1810      C1811   1.368       .  A
C1811      N1812   1.355       .  A
C1811      C1851   1.470       .  S
O1813     Ni1821   1.920       .  S
O1813      C1823   1.279       .  A
O1814     Ni1821   1.916       .  S
O1814      C1824   1.283       .  A
O1815     Ni1821   1.920       .  S
O1815      C1825   1.285       .  A
O1816     Ni1821   1.927       .  S
O1816      C1826   1.280       .  A
O1817     Ni1822   1.917       .  S
O1817      C1826   1.284       .  A
O1818     Ni1822   1.922       .  S
O1818      C1825   1.278       .  A
O1819     Ni1822   1.924       .  S
O1819      C1824   1.280       .  A
O1820     Ni1822   1.918       .  S
O1820      C1823   1.284       .  A
Ni1821    Ni1822   2.390       .  S
O1827     Ni1835   1.923       .  S
O1827      C1837   1.279       .  A
O1828     Ni1835   1.916       .  S
O1828      C1838   1.284       .  A
O1829     Ni1835   1.919       .  S
O1829      C1839   1.285       .  A
O1830     Ni1835   1.928       .  S
O1830      C1840   1.281       .  A
O1831     Ni1836   1.914       .  S
O1831      C1840   1.283       .  A
O1832     Ni1836   1.918       .  S
O1832      C1839   1.278       .  A
O1833     Ni1836   1.922       .  S
O1833      C1838   1.279       .  A
O1834     Ni1836   1.917       .  S
O1834      C1837   1.284       .  A
Ni1835    Ni1836   2.390       .  S
C1840      C2329   1.474       .  S
O1841     Ni1849   1.923       .  S
O1841      C1851   1.280       .  A
O1842     Ni1849   1.919       .  S
O1842      C1852   1.284       .  A
O1843     Ni1849   1.916       .  S
O1843      C1853   1.284       .  A
O1844     Ni1849   1.921       .  S
O1844      C1854   1.279       .  A
O1845     Ni1850   1.914       .  S
O1845      C1854   1.284       .  A
O1846     Ni1850   1.923       .  S
O1846      C1853   1.279       .  A
O1847     Ni1850   1.921       .  S
O1847      C1852   1.279       .  A
O1848     Ni1850   1.914       .  S
O1848      C1851   1.283       .  A
Ni1849    Ni1850   2.390       .  S
C1855      C1856   1.404       .  A
C1855      C1860   1.393       .  A
C1855      F1862   1.358       .  S
C1856      C1857   1.405       .  A
C1857      C1858   1.395       .  A
C1857      F1864   1.358       .  S
C1858      C1859   1.404       .  A
C1858      F1863   1.358       .  S
C1859      C1860   1.404       .  A
C1860      F1861   1.358       .  S
C1865      C1866   1.408       .  A
C1865      C1870   1.392       .  A
C1865      F1872   1.358       .  S
C1866      C1867   1.408       .  A
C1867      C1868   1.393       .  A
C1867      F1874   1.358       .  S
C1868      C1869   1.409       .  A
C1868      F1873   1.358       .  S
C1869      C1870   1.407       .  A
C1870      F1871   1.358       .  S
C1875      C1880   1.393       .  A
C1875      F1882   1.358       .  S
C1876      C1877   1.408       .  A
C1877      C1878   1.394       .  A
C1877      F1884   1.358       .  S
C1878      F1883   1.358       .  S
C1879      C1880   1.407   1_554  A
C1880      F1881   1.358       .  S
C1885      C1886   1.408       .  A
C1885      C1890   1.394       .  A
C1885      F1892   1.358       .  S
C1886      C1887   1.408       .  A
C1887      C1888   1.394       .  A
C1887      F1894   1.358       .  S
C1888      C1889   1.407       .  A
C1888      F1893   1.358       .  S
C1889      C1890   1.407       .  A
C1890      F1891   1.358       .  S
C1895      C1896   1.405       .  A
C1895      C1900   1.395       .  A
C1895      F1902   1.358       .  S
C1896      C1897   1.405       .  A
C1897      C1898   1.393       .  A
C1897      F1904   1.358       .  S
C1898      C1899   1.405       .  A
C1898      F1903   1.358       .  S
C1899      C1900   1.405       .  A
C1900      F1901   1.358       .  S
C1905      C1910   1.393       .  A
C1905      F1912   1.358   1_455  S
C1906      C1907   1.407       .  A
C1907      C1908   1.395       .  A
C1907      F1914   1.358       .  S
C1908      F1913   1.358       .  S
C1910      F1911   1.358   1_455  S
C1915      C1920   1.395       .  A
C1915      F1922   1.358       .  S
C1916      C2565   1.408   1_544  A
C1917      C2564   1.408   1_556  A
C1917      C1918   1.396       .  A
C1917      F1924   1.358       .  S
C1918      C2243   1.408       .  A
C1918      F1923   1.358       .  S
C1919      C2242   1.408   1_545  A
C1919      C1920   1.407       .  A
C1920      F1921   1.358       .  S
C1925      C1926   1.405       .  A
C1925      C1930   1.396       .  A
C1925      F1932   1.358       .  S
C1926      C1927   1.405       .  A
C1927      C1928   1.394       .  A
C1927      F1934   1.358       .  S
C1928      C1929   1.406       .  A
C1928      F1933   1.358       .  S
C1929      C1930   1.405       .  A
C1930      F1931   1.358       .  S
C1935      C1936   1.406       .  A
C1935      C1940   1.394       .  A
C1935      F1942   1.358       .  S
C1936      C1937   1.406       .  A
C1937      C1938   1.393       .  A
C1937      F1944   1.358       .  S
C1938      C1939   1.406       .  A
C1938      F1943   1.358       .  S
C1939      C2275   1.469       .  S
C1939      C1940   1.406       .  A
C1940      F1941   1.358       .  S
C1945      N1946   1.350       .  A
C1945      N1950   1.350       .  A
C1945      C2260   1.469       .  S
N1946      C1947   1.353       .  A
C1947      C1996   1.471       .  S
N1948      C1949   1.369       .  A
C1949      C2069   1.472   1_455  S
C1951      N1952   1.350       .  A
C1951      N1956   1.349       .  A
N1952      C1953   1.354       .  A
C1953      N1954   1.370       .  A
C1953      C1980   1.472       .  S
N1954      C1955   1.371       .  A
C1955      N1956   1.353       .  A
C1955      C2043   1.473       .  S
C1957      N1958   1.351       .  A
C1957      N1962   1.350       .  A
N1958      C1959   1.356       .  A
C1959      N1960   1.370       .  A
C1959      C2150   1.474       .  S
N1960      C1961   1.369       .  A
C1961      N1962   1.354       .  A
C1961      C1995   1.473       .  S
C1963      N1964   1.351       .  A
C1963      N1968   1.350       .  A
C1963      C2250   1.465       .  S
C1965      N1966   1.371       .  A
C1965      C2124   1.475   1_545  S
C1967      N1968   1.354       .  A
C1967      C1979   1.473       .  S
O1970     Ni1977   1.917       .  S
O1970      C1980   1.285       .  A
O1971     Ni1977   1.917       .  S
O1971      C1981   1.284       .  A
O1973     Ni1978   1.914       .  S
O1973      C1982   1.283       .  A
O1974     Ni1978   1.922       .  S
O1974      C1981   1.279       .  A
O1975     Ni1978   1.924       .  S
O1975      C1980   1.279       .  A
O1976     Ni1978   1.917       .  S
O1976      C1979   1.285       .  A
Ni1977    Ni1978   2.390       .  S
C1981      C2057   1.471       .  S
C1982      C2127   1.470       .  S
O1983     Ni1991   1.918       .  S
O1983      C1993   1.284       .  A
O1984     Ni1991   1.924       .  S
O1984      C1994   1.279       .  A
O1985     Ni1991   1.925       .  S
O1985      C1995   1.279       .  A
O1986     Ni1991   1.916       .  S
O1986      C1996   1.284       .  A
O1988     Ni1992   1.917       .  S
O1988      C1995   1.284       .  A
O1989     Ni1992   1.916       .  S
O1989      C1994   1.284       .  A
O1990     Ni1992   1.922       .  S
O1990      C1993   1.279       .  A
Ni1991    Ni1992   2.390       .  S
C1993      C2023   1.472       .  S
C1994      C2101   1.473       .  S
C1997      N2322   1.351       .  A
C1997      N2002   1.351   1_556  A
C1997      C2243   1.477       .  S
N1998      C2321   1.352       .  A
N1998      C1999   1.356       .  A
C1999      N2324   1.368       .  A
N2000      C2323   1.369       .  A
N2000      C2001   1.369   1_556  A
C2001      N2002   1.355       .  A
C2001      C2084   1.473       .  S
C2003      N2004   1.352       .  A
C2003      N2332   1.351       .  A
C2003      C2240   1.478       .  S
N2004      C2005   1.357       .  A
C2005      N2006   1.369       .  A
N2006      C2331   1.369       .  A
C2007      N2330   1.369       .  A
C2007      N2008   1.355       .  A
C2007      C2045   1.473       .  S
N2008      C2327   1.351       .  A
C2009      N2334   1.352   1_554  A
C2009      N2014   1.349       .  A
C2009      C2230   1.478       .  S
N2010      C2333   1.353       .  A
N2010      C2011   1.357       .  A
C2011      N2336   1.369       .  A
C2011      C2148   1.473       .  S
N2012      C2335   1.369       .  A
N2012      C2013   1.368   1_556  A
C2013      N2014   1.352       .  A
C2015      N2340   1.352       .  A
C2015      N2020   1.350       .  A
C2015      C2233   1.479       .  S
N2016      C2339   1.352       .  A
N2016      C2017   1.356       .  A
C2017      N2342   1.369   1_554  A
N2018      C2341   1.370       .  A
N2018      C2019   1.369       .  A
C2019      N2020   1.354       .  A
C2019      C2161   1.474       .  S
C2021      N2022   1.352       .  A
C2021      N2026   1.350       .  A
C2021      C2223   1.480       .  S
N2022      C2023   1.356       .  A
N2024      C2025   1.368       .  A
C2025      C2083   1.471   1_455  S
C2027      N2028   1.352       .  A
C2027      N2032   1.351       .  A
C2027      C2220   1.481       .  S
N2028      C2029   1.355       .  A
C2029      N2030   1.367       .  A
C2029      C2046   1.472       .  S
N2030      C2031   1.368       .  A
C2031      N2032   1.355       .  A
C2031      C2177   1.472       .  S
O2033     Ni2041   1.918       .  S
O2033      C2043   1.285       .  A
O2034     Ni2041   1.925       .  S
O2034      C2044   1.279       .  A
O2035     Ni2041   1.923       .  S
O2035      C2045   1.279       .  A
O2036     Ni2041   1.916       .  S
O2036      C2046   1.283       .  A
O2037     Ni2042   1.924       .  S
O2037      C2046   1.280       .  A
O2038     Ni2042   1.919       .  S
O2038      C2045   1.284       .  A
O2039     Ni2042   1.917       .  S
O2039      C2044   1.285       .  A
O2040     Ni2042   1.923       .  S
O2040      C2043   1.278       .  A
Ni2041    Ni2042   2.389       .  S
C2044      C2091   1.474       .  S
C2047      N2048   1.352       .  A
C2047      N2052   1.352       .  A
C2047      C2210   1.478       .  S
N2048      C2049   1.355       .  A
C2049      N2050   1.368       .  A
C2049      C2072   1.474       .  S
N2050      C2051   1.368       .  A
C2051      N2052   1.355       .  A
C2051      C2176   1.473       .  S
C2053      C2213   1.477       .  S
N2054      C2055   1.354       .  A
C2055      N2056   1.368       .  A
C2055      C2086   1.472       .  S
N2056      C2057   1.369       .  A
C2057      N2058   1.355       .  A
O2059     Ni2067   1.924       .  S
O2059      C2069   1.279       .  A
O2060     Ni2067   1.918       .  S
O2060      C2070   1.285       .  A
O2061     Ni2067   1.919       .  S
O2061      C2071   1.284       .  A
O2062     Ni2067   1.924       .  S
O2062      C2072   1.280       .  A
O2063     Ni2068   1.919       .  S
O2063      C2072   1.284       .  A
O2064     Ni2068   1.925       .  S
O2064      C2071   1.280       .  A
O2065     Ni2068   1.924       .  S
O2065      C2070   1.279       .  A
O2066     Ni2068   1.917       .  S
O2066      C2069   1.284       .  A
Ni2067    Ni2068   2.389       .  S
C2070      C2095   1.474       .  S
O2073     Ni2081   1.916       .  S
O2073      C2083   1.284       .  A
O2074     Ni2081   1.925       .  S
O2074      C2084   1.280       .  A
O2075     Ni2081   1.920       .  S
O2075      C2085   1.278       .  A
O2076     Ni2081   1.914       .  S
O2076      C2086   1.283       .  A
O2077     Ni2082   1.926       .  S
O2077      C2086   1.280       .  A
O2078     Ni2082   1.917       .  S
O2078      C2085   1.285       .  A
O2079     Ni2082   1.917       .  S
O2079      C2084   1.284       .  A
O2080     Ni2082   1.923       .  S
O2080      C2083   1.279       .  A
Ni2081    Ni2082   2.390       .  S
C2087      N2412   1.352       .  A
C2087      N2092   1.351   1_556  A
C2087      C2200   1.475       .  S
N2088      C2411   1.352       .  A
N2088      C2089   1.354       .  A
C2089      N2414   1.370       .  A
C2089      C2149   1.474       .  S
N2090      C2413   1.370       .  A
N2090      C2091   1.370   1_556  A
C2091      N2092   1.354       .  A
C2093      N2418   1.351       .  A
C2093      N2098   1.350       .  A
C2093      C2203   1.475       .  S
N2094      C2417   1.351       .  A
N2094      C2095   1.354       .  A
C2095      N2420   1.371       .  A
N2096      C2419   1.371       .  A
N2096      C2097   1.370       .  A
C2097      N2098   1.354       .  A
C2097      C2123   1.475       .  S
C2099      C2190   1.477       .  S
N2100      C2101   1.354       .  A
C2101      N2102   1.368       .  A
N2102      C2103   1.369       .  A
C2103      N2104   1.353       .  A
C2103      C2163   1.471       .  S
C2105      N2106   1.349       .  A
C2105      N2110   1.352       .  A
C2105      C2193   1.478       .  S
N2106      C2107   1.353       .  A
C2107      N2108   1.368       .  A
C2107      C2178   1.471       .  S
N2108      C2109   1.369       .  A
C2109      N2110   1.355       .  A
C2109      C2121   1.473       .  S
O2111     Ni2119   1.920       .  S
O2111      C2121   1.285       .  A
O2112     Ni2119   1.926       .  S
O2112      C2122   1.280       .  A
O2113     Ni2119   1.925       .  S
O2113      C2123   1.279       .  A
O2114     Ni2119   1.918       .  S
O2114      C2124   1.285       .  A
O2115     Ni2120   1.925       .  S
O2115      C2124   1.279       .  A
O2116     Ni2120   1.919       .  S
O2116      C2123   1.285       .  A
O2117     Ni2120   1.916       .  S
O2117      C2122   1.283       .  A
O2118     Ni2120   1.923       .  S
O2118      C2121   1.279       .  A
Ni2119    Ni2120   2.389       .  S
C2125      N2126   1.349       .  A
C2125      N2130   1.350       .  A
C2125      C2180   1.465       .  S
N2126      C2127   1.354       .  A
N2128      C2129   1.369       .  A
C2129      C2162   1.472   1_545  S
C2131      N2132   1.350       .  A
C2131      N2136   1.350       .  A
C2131      C2183   1.465       .  S
N2132      C2133   1.354       .  A
C2133      N2134   1.368       .  A
C2133      C2147   1.471       .  S
N2134      C2135   1.368       .  A
C2135      N2136   1.356       .  A
C2135      C2175   1.472       .  S
O2137     Ni2145   1.920       .  S
O2137      C2147   1.279       .  A
O2138     Ni2145   1.916       .  S
O2138      C2148   1.283       .  A
O2139     Ni2145   1.920       .  S
O2139      C2149   1.285       .  A
O2140     Ni2145   1.926       .  S
O2140      C2150   1.280       .  A
O2141     Ni2146   1.918       .  S
O2141      C2150   1.284       .  A
O2142     Ni2146   1.923       .  S
O2142      C2149   1.279       .  A
O2143     Ni2146   1.925       .  S
O2143      C2148   1.280       .  A
O2144     Ni2146   1.918       .  S
O2144      C2147   1.284       .  A
Ni2145    Ni2146   2.389       .  S
O2151     Ni2159   1.924       .  S
O2151      C2161   1.279       .  A
O2152     Ni2159   1.918       .  S
O2152      C2162   1.284       .  A
O2153     Ni2159   1.920       .  S
O2153      C2163   1.285       .  A
O2154     Ni2159   1.928       .  S
O2154      C2164   1.281       .  A
O2155     Ni2160   1.914       .  S
O2155      C2164   1.283       .  A
O2156     Ni2160   1.918       .  S
O2156      C2163   1.278       .  A
O2157     Ni2160   1.924       .  S
O2157      C2162   1.279       .  A
O2158     Ni2160   1.918       .  S
O2158      C2161   1.285       .  A
Ni2159    Ni2160   2.390       .  S
O2165     Ni2173   1.924       .  S
O2165      C2175   1.280       .  A
O2166     Ni2173   1.920       .  S
O2166      C2176   1.284       .  A
O2167     Ni2173   1.917       .  S
O2167      C2177   1.284       .  A
O2168     Ni2173   1.922       .  S
O2168      C2178   1.279       .  A
O2169     Ni2174   1.916       .  S
O2169      C2178   1.284       .  A
O2170     Ni2174   1.923       .  S
O2170      C2177   1.279       .  A
O2171     Ni2174   1.922       .  S
O2171      C2176   1.279       .  A
O2172     Ni2174   1.915       .  S
O2172      C2175   1.283       .  A
Ni2173    Ni2174   2.390       .  S
C2179      C2180   1.404       .  A
C2179      C2184   1.393       .  A
C2179      F2186   1.358       .  S
C2180      C2181   1.405       .  A
C2181      C2182   1.395       .  A
C2181      F2188   1.358       .  S
C2182      C2183   1.404       .  A
C2182      F2187   1.358       .  S
C2183      C2184   1.405       .  A
C2184      F2185   1.358       .  S
C2189      C2190   1.408       .  A
C2189      C2194   1.393       .  A
C2189      F2196   1.358       .  S
C2190      C2191   1.408       .  A
C2191      C2192   1.393       .  A
C2191      F2198   1.358       .  S
C2192      C2193   1.410       .  A
C2192      F2197   1.358       .  S
C2193      C2194   1.408       .  A
C2194      F2195   1.358       .  S
C2199      C2524   1.407       .  A
C2199      C2204   1.394       .  A
C2199      F2206   1.358       .  S
C2200      C2523   1.407       .  A
C2200      C2201   1.408   1_556  A
C2201      C2202   1.395       .  A
C2201      F2208   1.358       .  S
C2202      C2527   1.407   1_554  A
C2202      F2207   1.358       .  S
C2203      C2526   1.407       .  A
C2203      C2204   1.408       .  A
C2204      F2205   1.358       .  S
C2209      C2210   1.408       .  A
C2209      C2214   1.395       .  A
C2209      F2216   1.358       .  S
C2210      C2211   1.408       .  A
C2211      C2212   1.394       .  A
C2211      F2218   1.358       .  S
C2212      C2213   1.407       .  A
C2212      F2217   1.358       .  S
C2213      C2214   1.408       .  A
C2214      F2215   1.358       .  S
C2219      C2220   1.408       .  A
C2219      C2224   1.393       .  A
C2219      F2226   1.358       .  S
C2220      C2221   1.409       .  A
C2221      C2222   1.395       .  A
C2221      F2228   1.358       .  S
C2222      C2223   1.408       .  A
C2222      F2227   1.358       .  S
C2223      C2224   1.409       .  A
C2224      F2225   1.358       .  S
C2229      C2234   1.393       .  A
C2229      F2236   1.358   1_455  S
C2230      C2231   1.407   1_554  A
C2231      C2232   1.395       .  A
C2231      F2238   1.358       .  S
C2232      C2557   1.409   1_556  A
C2232      F2237   1.358       .  S
C2233      C2556   1.410       .  A
C2234      F2235   1.358   1_455  S
C2239      C2564   1.407       .  A
C2239      C2244   1.394       .  A
C2239      F2246   1.358       .  S
C2240      C2563   1.408       .  A
C2241      C2242   1.396       .  A
C2241      F2248   1.358       .  S
C2242      F2247   1.358       .  S
C2243      C2244   1.407   1_556  A
C2244      F2245   1.358       .  S
C2249      C2250   1.405       .  A
C2249      C2254   1.396       .  A
C2249      F2256   1.358       .  S
C2250      C2251   1.404       .  A
C2251      C2252   1.394       .  A
C2251      F2258   1.358       .  S
C2252      C2253   1.405       .  A
C2252      F2257   1.358       .  S
C2253      C2254   1.405       .  A
C2254      F2255   1.358       .  S
C2259      C2260   1.407       .  A
C2259      C2264   1.394       .  A
C2259      F2266   1.358       .  S
C2260      C2261   1.406       .  A
C2261      C2262   1.393       .  A
C2261      F2268   1.358       .  S
C2262      C2263   1.406       .  A
C2262      F2267   1.358       .  S
C2263      C2264   1.405       .  A
C2264      F2265   1.358       .  S
C2269      N2270   1.350       .  A
C2269      N2274   1.350       .  A
C2269      C2584   1.470       .  S
N2270      C2271   1.354       .  A
C2271      C2320   1.472       .  S
N2272      C2273   1.369       .  A
C2273      C2393   1.472   1_455  S
C2275      N2276   1.350       .  A
C2275      N2280   1.350       .  A
N2276      C2277   1.354       .  A
C2277      N2278   1.370       .  A
C2277      C2304   1.473       .  S
N2278      C2279   1.371       .  A
C2279      N2280   1.353       .  A
C2279      C2367   1.473       .  S
C2281      N2282   1.352       .  A
C2281      N2286   1.350       .  A
N2282      C2283   1.356       .  A
C2283      N2284   1.370       .  A
C2283      C2474   1.475       .  S
N2284      C2285   1.369       .  A
C2285      N2286   1.354       .  A
C2285      C2319   1.473       .  S
C2287      N2288   1.350       .  A
C2287      N2292   1.350       .  A
C2287      C2574   1.464       .  S
C2289      N2290   1.371       .  A
C2289      C2448   1.476   1_545  S
C2291      N2292   1.354       .  A
C2291      C2303   1.474       .  S
O2294     Ni2301   1.917       .  S
O2294      C2304   1.284       .  A
O2295     Ni2301   1.917       .  S
O2295      C2305   1.284       .  A
O2297     Ni2302   1.915       .  S
O2297      C2306   1.284       .  A
O2298     Ni2302   1.923       .  S
O2298      C2305   1.279       .  A
O2299     Ni2302   1.925       .  S
O2299      C2304   1.279       .  A
O2300     Ni2302   1.919       .  S
O2300      C2303   1.285       .  A
Ni2301    Ni2302   2.390       .  S
C2305      C2381   1.472       .  S
C2306      C2451   1.471       .  S
O2307     Ni2315   1.916       .  S
O2307      C2317   1.284       .  A
O2308     Ni2315   1.923       .  S
O2308      C2318   1.279       .  A
O2309     Ni2315   1.924       .  S
O2309      C2319   1.279       .  A
O2310     Ni2315   1.916       .  S
O2310      C2320   1.284       .  A
O2312     Ni2316   1.917       .  S
O2312      C2319   1.284       .  A
O2313     Ni2316   1.918       .  S
O2313      C2318   1.284       .  A
O2314     Ni2316   1.924       .  S
O2314      C2317   1.279       .  A
Ni2315    Ni2316   2.390       .  S
C2317      C2347   1.472       .  S
C2318      C2425   1.473       .  S
C2321      N2326   1.351       .  A
C2321      C2567   1.478       .  S
N2322      C2323   1.355       .  A
N2324      C2325   1.368       .  A
C2325      N2326   1.355       .  A
C2325      C2408   1.471       .  S
C2327      N2328   1.351   1_554  A
C2327      C2564   1.477       .  S
N2328      C2329   1.356       .  A
C2329      N2330   1.369   1_556  A
C2331      N2332   1.355       .  A
C2331      C2369   1.473       .  S
C2333      N2338   1.349       .  A
C2333      C2554   1.479       .  S
N2334      C2335   1.358       .  A
C2335      C2472   1.474       .  S
N2336      C2337   1.367       .  A
C2337      N2338   1.352       .  A
C2339      N2344   1.350   1_554  A
C2339      C2557   1.477       .  S
N2340      C2341   1.356       .  A
N2342      C2343   1.369       .  A
C2343      N2344   1.354       .  A
C2343      C2485   1.473       .  S
C2345      N2346   1.350       .  A
C2345      N2350   1.350       .  A
C2345      C2547   1.467       .  S
N2346      C2347   1.354       .  A
N2348      C2349   1.369       .  A
C2349      C2407   1.472   1_455  S
C2351      N2352   1.351       .  A
C2351      N2356   1.350       .  A
C2351      C2544   1.468       .  S
N2352      C2353   1.356       .  A
C2353      N2354   1.368       .  A
C2353      C2370   1.472       .  S
N2354      C2355   1.368       .  A
C2355      N2356   1.355       .  A
C2355      C2501   1.472       .  S
O2357     Ni2365   1.919       .  S
O2357      C2367   1.285       .  A
O2358     Ni2365   1.925       .  S
O2358      C2368   1.279       .  A
O2359     Ni2365   1.923       .  S
O2359      C2369   1.279       .  A
O2360     Ni2365   1.916       .  S
O2360      C2370   1.283       .  A
O2361     Ni2366   1.925       .  S
O2361      C2370   1.280       .  A
O2362     Ni2366   1.920       .  S
O2362      C2369   1.285       .  A
O2363     Ni2366   1.916       .  S
O2363      C2368   1.284       .  A
O2364     Ni2366   1.922       .  S
O2364      C2367   1.278       .  A
Ni2365    Ni2366   2.390       .  S
C2368      C2415   1.474       .  S
C2371      N2372   1.352       .  A
C2371      N2376   1.351       .  A
C2371      C2534   1.476       .  S
N2372      C2373   1.355       .  A
C2373      N2374   1.368       .  A
C2373      C2396   1.473       .  S
N2374      C2375   1.368       .  A
C2375      N2376   1.354       .  A
C2375      C2500   1.472       .  S
C2377      C2537   1.475       .  S
N2378      C2379   1.354       .  A
C2379      N2380   1.369       .  A
C2379      C2410   1.472       .  S
N2380      C2381   1.370       .  A
C2381      N2382   1.355       .  A
O2383     Ni2391   1.924       .  S
O2383      C2393   1.279       .  A
O2384     Ni2391   1.919       .  S
O2384      C2394   1.285       .  A
O2385     Ni2391   1.920       .  S
O2385      C2395   1.285       .  A
O2386     Ni2391   1.924       .  S
O2386      C2396   1.280       .  A
O2387     Ni2392   1.918       .  S
O2387      C2396   1.284       .  A
O2388     Ni2392   1.925       .  S
O2388      C2395   1.280       .  A
O2389     Ni2392   1.925       .  S
O2389      C2394   1.279       .  A
O2390     Ni2392   1.917       .  S
O2390      C2393   1.284       .  A
Ni2391    Ni2392   2.389       .  S
C2394      C2419   1.475       .  S
O2397     Ni2405   1.917       .  S
O2397      C2407   1.284       .  A
O2398     Ni2405   1.924       .  S
O2398      C2408   1.280       .  A
O2399     Ni2405   1.920       .  S
O2399      C2409   1.278       .  A
O2400     Ni2405   1.915       .  S
O2400      C2410   1.284       .  A
O2401     Ni2406   1.925       .  S
O2401      C2410   1.279       .  A
O2402     Ni2406   1.916       .  S
O2402      C2409   1.284       .  A
O2403     Ni2406   1.916       .  S
O2403      C2408   1.284       .  A
O2404     Ni2406   1.923       .  S
O2404      C2407   1.279       .  A
Ni2405    Ni2406   2.390       .  S
C2411      N2416   1.351       .  A
C2411      C2524   1.476       .  S
N2412      C2413   1.354       .  A
C2413      C2473   1.475       .  S
N2414      C2415   1.369       .  A
C2415      N2416   1.354       .  A
C2417      N2422   1.350   1_554  A
C2417      C2527   1.475   1_554  S
N2418      C2419   1.355       .  A
N2420      C2421   1.370   1_554  A
C2421      N2422   1.353       .  A
C2421      C2447   1.474       .  S
C2423      C2514   1.478       .  S
N2424      C2425   1.355       .  A
C2425      N2426   1.369       .  A
N2426      C2427   1.369       .  A
C2427      N2428   1.353       .  A
C2427      C2487   1.472       .  S
C2429      N2430   1.349       .  A
C2429      N2434   1.352       .  A
C2429      C2517   1.479       .  S
N2430      C2431   1.353       .  A
C2431      N2432   1.368       .  A
C2431      C2502   1.471       .  S
N2432      C2433   1.369       .  A
C2433      N2434   1.355       .  A
C2433      C2445   1.473       .  S
O2435     Ni2443   1.919       .  S
O2435      C2445   1.284       .  A
O2436     Ni2443   1.926       .  S
O2436      C2446   1.280       .  A
O2437     Ni2443   1.925       .  S
O2437      C2447   1.279       .  A
O2438     Ni2443   1.918       .  S
O2438      C2448   1.285       .  A
O2439     Ni2444   1.927       .  S
O2439      C2448   1.279       .  A
O2440     Ni2444   1.919       .  S
O2440      C2447   1.285       .  A
O2441     Ni2444   1.916       .  S
O2441      C2446   1.283       .  A
O2442     Ni2444   1.923       .  S
O2442      C2445   1.279       .  A
Ni2443    Ni2444   2.389       .  S
C2449      N2450   1.349       .  A
C2449      N2454   1.350       .  A
C2449      C2504   1.464       .  S
N2450      C2451   1.354       .  A
N2452      C2453   1.369       .  A
C2453      C2486   1.471   1_545  S
C2455      N2456   1.350       .  A
C2455      N2460   1.350       .  A
C2455      C2507   1.464       .  S
N2456      C2457   1.354       .  A
C2457      N2458   1.368       .  A
C2457      C2471   1.471       .  S
N2458      C2459   1.368       .  A
C2459      N2460   1.355       .  A
C2459      C2499   1.471       .  S
O2461     Ni2469   1.920       .  S
O2461      C2471   1.278       .  A
O2462     Ni2469   1.916       .  S
O2462      C2472   1.283       .  A
O2463     Ni2469   1.921       .  S
O2463      C2473   1.285       .  A
O2464     Ni2469   1.927       .  S
O2464      C2474   1.280       .  A
O2465     Ni2470   1.917       .  S
O2465      C2474   1.284       .  A
O2466     Ni2470   1.923       .  S
O2466      C2473   1.278       .  A
O2467     Ni2470   1.927       .  S
O2467      C2472   1.281       .  A
O2468     Ni2470   1.919       .  S
O2468      C2471   1.284       .  A
Ni2469    Ni2470   2.389       .  S
O2475     Ni2483   1.924       .  S
O2475      C2485   1.279       .  A
O2476     Ni2483   1.917       .  S
O2476      C2486   1.284       .  A
O2477     Ni2483   1.921       .  S
O2477      C2487   1.285       .  A
O2478     Ni2483   1.929       .  S
O2478      C2488   1.281       .  A
O2479     Ni2484   1.916       .  S
O2479      C2488   1.283       .  A
O2480     Ni2484   1.920       .  S
O2480      C2487   1.278       .  A
O2481     Ni2484   1.922       .  S
O2481      C2486   1.279       .  A
O2482     Ni2484   1.917       .  S
O2482      C2485   1.284       .  A
Ni2483    Ni2484   2.389       .  S
O2489     Ni2497   1.925       .  S
O2489      C2499   1.280       .  A
O2490     Ni2497   1.920       .  S
O2490      C2500   1.285       .  A
O2491     Ni2497   1.916       .  S
O2491      C2501   1.284       .  A
O2492     Ni2497   1.921       .  S
O2492      C2502   1.279       .  A
O2493     Ni2498   1.916       .  S
O2493      C2502   1.284       .  A
O2494     Ni2498   1.924       .  S
O2494      C2501   1.280       .  A
O2495     Ni2498   1.921       .  S
O2495      C2500   1.279       .  A
O2496     Ni2498   1.914       .  S
O2496      C2499   1.283       .  A
Ni2497    Ni2498   2.390       .  S
C2503      C2504   1.404       .  A
C2503      C2508   1.393       .  A
C2503      F2510   1.358       .  S
C2504      C2505   1.405       .  A
C2505      C2506   1.395       .  A
C2505      F2512   1.358       .  S
C2506      C2507   1.404       .  A
C2506      F2511   1.358       .  S
C2507      C2508   1.404       .  A
C2508      F2509   1.358       .  S
C2513      C2514   1.409       .  A
C2513      C2518   1.393       .  A
C2513      F2520   1.358       .  S
C2514      C2515   1.408       .  A
C2515      C2516   1.393       .  A
C2515      F2522   1.358       .  S
C2516      C2517   1.410       .  A
C2516      F2521   1.358       .  S
C2517      C2518   1.408       .  A
C2518      F2519   1.358       .  S
C2523      C2528   1.393       .  A
C2523      F2530   1.358       .  S
C2524      C2525   1.408       .  A
C2525      C2526   1.394       .  A
C2525      F2532   1.358       .  S
C2526      F2531   1.358       .  S
C2527      C2528   1.407       .  A
C2528      F2529   1.358       .  S
C2533      C2534   1.408       .  A
C2533      C2538   1.395       .  A
C2533      F2540   1.358       .  S
C2534      C2535   1.408       .  A
C2535      C2536   1.393       .  A
C2535      F2542   1.358       .  S
C2536      C2537   1.407       .  A
C2536      F2541   1.358       .  S
C2537      C2538   1.408       .  A
C2538      F2539   1.358       .  S
C2543      C2544   1.406       .  A
C2543      C2548   1.396       .  A
C2543      F2550   1.358       .  S
C2544      C2545   1.405       .  A
C2545      C2546   1.393       .  A
C2545      F2552   1.358       .  S
C2546      C2547   1.405       .  A
C2546      F2551   1.358       .  S
C2547      C2548   1.405       .  A
C2548      F2549   1.358       .  S
C2553      C2558   1.393   1_455  A
C2553      F2560   1.358   1_455  S
C2554      C2555   1.407       .  A
C2555      C2556   1.395       .  A
C2555      F2562   1.358       .  S
C2556      F2561   1.358       .  S
C2558      F2559   1.358       .  S
C2563      C2568   1.394       .  A
C2563      F2570   1.358       .  S
C2565      C2566   1.397       .  A
C2565      F2572   1.358       .  S
C2566      F2571   1.358       .  S
C2567      C2568   1.408       .  A
C2568      F2569   1.358       .  S
C2573      C2574   1.404       .  A
C2573      C2578   1.396       .  A
C2573      F2580   1.358       .  S
C2574      C2575   1.403       .  A
C2575      C2576   1.394       .  A
C2575      F2582   1.358       .  S
C2576      C2577   1.405       .  A
C2576      F2581   1.358       .  S
C2577      C2578   1.404       .  A
C2578      F2579   1.358       .  S
C2583      C2584   1.406       .  A
C2583      C2588   1.394       .  A
C2583      F2590   1.358       .  S
C2584      C2585   1.406       .  A
C2585      C2586   1.393       .  A
C2585      F2592   1.358       .  S
C2586      C2587   1.406       .  A
C2586      F2591   1.358       .  S
C2587      C2588   1.406       .  A
C2588      F2589   1.358       .  S
