geometry optimzed in LAMMPS
_audit_creation_date              2020-11-30 
_audit_creation_method            'lammps2cif' 
_symmetry_space_group_name_H-M    'P1' 
_symmetry_Int_Tables_number       1 
_symmetry_cell_setting            triclinic 
loop_ 
_symmetry_equiv_pos_as_xyz 
  x,y,z 
_cell_length_a                    40.29457017 
_cell_length_b                    40.004936430577274 
_cell_length_c                    36.59991967737478 
_cell_angle_alpha                 84.6578562454991 
_cell_angle_beta                  89.21799380148676 
_cell_angle_gamma                 105.33858091481432 
loop_ 
_atom_site_label 
_atom_site_type_symbol 
_atom_site_fract_x 
_atom_site_fract_y 
_atom_site_fract_z 
_atom_site_charge 
O1          O  0.47049258  0.29027246  0.49335959    -0.72600
O2          O  0.48774733  0.19135173  0.00938226    -0.72600
O3          O  0.48186129  0.23865286  0.05572082    -0.72700
O4          O  0.48099940  0.24507461  0.44697874    -0.72700
O5          O  0.03774583  0.26914292  0.44696251    -0.72700
O6          O  0.03835858  0.26368955  0.04837899    -0.72600
O7          O  0.04421929  0.21646161  0.00215524    -0.72600
O8          O  0.02713364  0.31451472  0.49386048    -0.72700
Ni9        Ni  0.47675462  0.23514212  0.00397882     1.25400
Ni10       Ni  0.03698016  0.26995795  0.49932703     1.25400
C11         C  0.99616855  0.31719259  0.49195693     0.89600
C12         C  0.01887031  0.18918262  0.00762582     0.89500
C13         C  0.51110291  0.25201798  0.06898950     0.89500
C14         C  0.51029160  0.25700113  0.42992055     0.89700
O15         O  0.04361123  0.26382049  0.19585331    -0.72600
O16         O  0.04287625  0.26411853  0.30070065    -0.72600
O17         O  0.04421434  0.21609688  0.25361373    -0.72700
O18         O  0.04254655  0.31190157  0.24346194    -0.72700
O19         O  0.48512988  0.29548324  0.24510060    -0.72700
O20         O  0.48676646  0.19921663  0.25501459    -0.72600
O21         O  0.48536350  0.24734483  0.30255467    -0.72600
O22         O  0.48613684  0.24735354  0.19796421    -0.72700
Ni23       Ni  0.04535228  0.26455811  0.24827703     1.25400
Ni24       Ni  0.48378781  0.24675743  0.25025776     1.25400
C25         C  0.51496312  0.25552659  0.17984025     0.89600
C26         C  0.51391243  0.25584390  0.31870654     0.89500
C27         C  0.51591723  0.19190386  0.25593812     0.89500
C28         C  0.51364217  0.31950927  0.24278517     0.89700
O29         O  0.40990894  0.46988129  0.48132448    -0.79100
O30         O  0.07389937  0.49339421  0.49701558    -0.63800
O31         O  0.48271176  0.47227134  0.01175997    -1.10400
C32         C  0.50767478  0.09111460  0.01116916     1.07800
O33         O  0.09734965  0.03097073  0.01322076    -0.77000
O34         O  0.04666310  0.02802692  0.06463071    -0.64500
Ni35       Ni  0.44710138  0.44736334  0.48011850     1.34900
C36         C  0.01587091  0.01906068  0.07772568     0.86600
O37         O  0.02161746  0.43761767  0.51368147    -0.77500
O38         O  0.47834749  0.41820516  0.47729391    -0.87800
C39         C  0.10381569  0.50665199  0.99860609     0.86100
O40         O  0.46788297  0.47606851  0.43691499    -0.66000
O41         O  0.03422806  0.08633170  0.02688023    -0.85300
C42         C  0.49983697  0.48403574  0.42769868     0.87000
C43         C  0.00319690  0.41375869  0.49662467     1.08500
H44         H  0.02847167  0.03863545  0.46574348     0.40300
O45         O  0.02176913  0.03033049  0.49110905    -1.07900
O46         O  0.49003809  0.02137884  0.05850495    -0.64600
Ni47       Ni  0.48193892  0.01879696  0.00631921     1.26300
O48         O  0.02300164  0.48155858  0.45049175    -0.64800
O49         O  0.48624528  0.06712015  0.99724536    -0.77100
C50         C  0.40092499  0.00176638  0.49448800     0.86300
O51         O  0.43455807  0.01286371  0.01833400    -0.64300
Ni52       Ni  0.06271740  0.05535114  0.01939001     1.27400
Ni53       Ni  0.02487267  0.48571208  0.50291517     1.26100
H54         H  0.47741871  0.46348346  0.03725296     0.40900
O55         O  0.40080229  0.46950123  0.23799846    -0.79100
O56         O  0.06101707  0.47929721  0.22868281    -0.63800
O57         O  0.46765870  0.47219890  0.25600686    -1.10400
C58         C  0.49487616  0.09210982  0.25525268     1.07800
O59         O  0.07561519  0.02050451  0.26621389    -0.77000
O60         O  0.02306410  0.02284833  0.31270719    -0.64500
Ni61       Ni  0.43311983  0.44412483  0.22778590     1.34900
C62         C  0.99162876  0.01722897  0.32289948     0.86600
O63         O  0.00713516  0.42562941  0.24573952    -0.77500
O64         O  0.45911578  0.41232559  0.21539554    -0.87800
C65         C  0.08616179  0.49503402  0.24643397     0.86100
O66         O  0.44956001  0.47427176  0.18449954    -0.66000
O67         O  0.01964527  0.08460983  0.27263262    -0.85300
C68         C  0.48014244  0.48268921  0.17091356     0.87000
C69         C  0.98426112  0.40391749  0.23039491     1.08500
H70         H  0.01790310  0.03200227  0.21308088     0.40300
O71         O  0.01184785  0.02250311  0.23826867    -1.07900
O72         O  0.46873857  0.02214319  0.30093926    -0.64600
Ni73       Ni  0.46486508  0.02026448  0.24841002     1.26300
O74         O  0.00588274  0.47834814  0.18920279    -0.64800
O75         O  0.47269077  0.06956258  0.23994199    -0.77100
C76         C  0.39091846  0.99542632  0.24954459     0.86300
O77         O  0.41772453  0.01794683  0.25716545    -0.64300
Ni78       Ni  0.04463968  0.04964663  0.26869492     1.27400
Ni79       Ni  0.01415735  0.47502756  0.24180522     1.26100
H80         H  0.46350997  0.46278974  0.28144113     0.40900
O81         O  0.30141118  0.02275909  0.49330575    -0.72600
O82         O  0.21297337  0.04084317  0.49838534    -0.72600
O83         O  0.26493869  0.02439133  0.05124276    -0.72700
O84         O  0.25391807  0.03044365  0.44349859    -0.72700
O85         O  0.23233888  0.45401448  0.45167957    -0.72700
O86         O  0.24438801  0.47291930  0.05384892    -0.72600
O87         O  0.20199607  0.48449260  0.00040025    -0.72600
O88         O  0.28905537  0.46305636  0.00183580    -0.72700
Ni89       Ni  0.25804138  0.03379244  0.49541132     1.25400
Ni90       Ni  0.24451804  0.47180611  0.00144970     1.25400
C91         C  0.30350237  0.99122461  0.49630917     0.89600
C92         C  0.19578944  0.01131053  0.99919707     0.89500
C93         C  0.25057119  0.99551726  0.07026633     0.89500
C94         C  0.24006046  0.00146881  0.43067689     0.89700
O95         O  0.29193608  0.01716188  0.24949587    -0.72600
O96         O  0.20257895  0.03373299  0.24501653    -0.72600
O97         O  0.24609689  0.02674890  0.29922302    -0.72700
O98         O  0.24932103  0.02469305  0.19488385    -0.72700
O99         O  0.23417328  0.46882516  0.19799801    -0.72700
O100        O  0.22802544  0.46136996  0.30307502    -0.72600
O101        O  0.18589436  0.47276772  0.24870004    -0.72600
O102        O  0.27607217  0.45809183  0.25230335    -0.72700
Ni103      Ni  0.24825771  0.02766308  0.24686651     1.25400
Ni104      Ni  0.23014758  0.46321345  0.25054742     1.25400
C105        C  0.30242543  0.48434596  0.25242572     0.89600
C106        C  0.18299980  0.50395829  0.24817205     0.89500
C107        C  0.23924032  0.48865962  0.31968944     0.89500
C108        C  0.24726245  0.49855431  0.18010896     0.89700
C109        C  0.23861247  0.48541672  0.35910317    -0.11500
C110        C  0.23702678  0.00043081  0.39170449    -0.13000
C111        C  0.25101352  0.50060240  0.14075746    -0.11500
C112        C  0.24666727  0.99479626  0.10948221    -0.13000
C113        C  0.14889594  0.51070643  0.24927001    -0.14600
C114        C  0.11969550  0.48726932  0.24207499    -0.29800
H115        H  0.14021430  0.04051342  0.25208600     0.14400
H116        H  0.12049628  0.46253555  0.23261154     0.15000
C117        C  0.35750214  0.00315276  0.25428157    -0.14600
C118        C  0.32786719  0.97821497  0.25351107    -0.29800
H119        H  0.35724178  0.02981268  0.25752701     0.14400
H120        H  0.33821249  0.45213898  0.24878984     0.15000
C121        C  0.13787443  0.50002407  0.99481311    -0.14600
C122        C  0.16237315  0.01962549  0.99987600    -0.29800
H123        H  0.12322409  0.97216930  0.49712590     0.14400
H124        H  0.16695457  0.55095897  0.00259130     0.15200
C125        C  0.36691165  0.00882634  0.49708770    -0.14600
C126        C  0.33744633  0.98401281  0.49407256    -0.29800
H127        H  0.37434163  0.02487898  0.01555942     0.14400
H128        H  0.34384641  0.44962468  0.49095401     0.15000
C129        C  0.51108916  0.49617162  0.38915913    -0.14600
C130        C  0.48052733  0.00468722  0.36149697    -0.29800
H131        H  0.52867874  0.99915346  0.37861376     0.14400
H132        H  0.96239637  0.49962087  0.37175453     0.15000
C133        C  0.51032496  0.00562372  0.11691361    -0.14600
C134        C  0.48501751  0.49708771  0.13194957    -0.29800
H135        H  0.03284910  0.00477409  0.13265978     0.14400
H136        H  0.46210455  0.49777258  0.11688685     0.15000
C137        C  0.51364856  0.35666111  0.24019244    -0.14600
C138        C  0.98594515  0.36742997  0.22994251    -0.29800
H139        H  0.03694492  0.37551480  0.24694167     0.14400
H140        H  0.46330300  0.34867141  0.22153950     0.15000
C141        C  0.51779080  0.15528984  0.25988889    -0.14600
C142        C  0.49136851  0.12821751  0.25320636    -0.29800
H143        H  0.54244819  0.15070696  0.26689094     0.14400
H144        H  0.96728549  0.13286476  0.24421763     0.15000
C145        C  0.51233287  0.25670570  0.39077318    -0.11500
C146        C  0.51338271  0.25627008  0.35787904    -0.13000
C147        C  0.51487493  0.25508753  0.14066171    -0.11500
C148        C  0.51341492  0.25390264  0.10789323    -0.13000
C149        C  0.98926535  0.35154775  0.48824114    -0.14600
C150        C  0.01165700  0.38005596  0.49843942    -0.29800
H151        H  0.46414992  0.35295102  0.47889970     0.14400
H152        H  0.03593979  0.37825658  0.50989994     0.15000
C153        C  0.52584802  0.15477380  0.01188893    -0.14600
C154        C  0.50074920  0.12545066  0.00950127    -0.29800
H155        H  0.55227754  0.15362498  0.01538828     0.14400
H156        H  0.97203585  0.13682586  0.49490553     0.15000
O157        O  0.46968505  0.28076321  0.99793812    -0.72600
O158        O  0.48569638  0.19996244  0.50491109    -0.72600
O159        O  0.47553098  0.24513367  0.55164733    -0.72700
O160        O  0.47579649  0.23346622  0.95175906    -0.72700
O161        O  0.03225452  0.25894178  0.94451358    -0.72700
O162        O  0.03228850  0.26901879  0.55156242    -0.72600
O163        O  0.04247485  0.22355106  0.50512930    -0.72600
O164        O  0.02617278  0.30606876  0.99126395    -0.72700
Ni165      Ni  0.47617644  0.24427877  0.49925005     1.25400
Ni166      Ni  0.03726980  0.26220084  0.99624728     1.25400
C167        C  0.99499013  0.30813524  0.99309698     0.89600
C168        C  0.01644635  0.19680729  0.50678514     0.89500
C169        C  0.50307223  0.25694361  0.56868402     0.89500
C170        C  0.50309010  0.24541327  0.93117325     0.89700
O171        O  0.02901970  0.25714117  0.69663525    -0.72600
O172        O  0.02863242  0.25108066  0.80177166    -0.72600
O173        O  0.02305804  0.20476325  0.75130777    -0.72700
O174        O  0.03457889  0.30349080  0.74768481    -0.72700
O175        O  0.47750428  0.29430799  0.74904027    -0.72700
O176        O  0.46596830  0.19555124  0.75242840    -0.72600
O177        O  0.47147462  0.24180235  0.80359466    -0.72600
O178        O  0.47190044  0.24808061  0.69837359    -0.72700
Ni179      Ni  0.03085117  0.25442857  0.74921639     1.25400
Ni180      Ni  0.46967050  0.24462197  0.75096917     1.25400
C181        C  0.50056632  0.25353424  0.68035802     0.89600
C182        C  0.49998197  0.24555710  0.81985104     0.89500
C183        C  0.49269788  0.18391998  0.75260009     0.89500
C184        C  0.50788781  0.31515116  0.74780518     0.89700
O185        O  0.41681588  0.46961486  0.98449271    -0.79100
O186        O  0.07787439  0.48305538  0.99087314    -0.63800
O187        O  0.47615566  0.47884513  0.51015740    -1.10400
C188        C  0.50170808  0.09862849  0.50635532     1.07800
O189        O  0.08651308  0.03265163  0.51990600    -0.77000
O190        O  0.03126417  0.03114243  0.56491716    -0.64500
Ni191      Ni  0.45061834  0.44314673  0.98207176     1.34900
C192        C  0.99953068  0.02484697  0.57428106     0.86600
O193        O  0.02547854  0.42923747  0.01054273    -0.77500
O194        O  0.47867103  0.41078989  0.97820736    -0.87800
C195        C  0.09759875  0.51741481  0.50870625     0.86100
O196        O  0.47058472  0.47067421  0.93769443    -0.66000
O197        O  0.02574694  0.09187650  0.52546107    -0.85300
C198        C  0.50202335  0.47744104  0.92706156     0.87000
C199        C  0.00467874  0.40563766  0.99516717     1.08500
H200        H  0.03319236  0.03112107  0.96728379     0.40300
O201        O  0.02916774  0.02372278  0.99324675    -1.07900
O202        O  0.47692367  0.02979715  0.55188598    -0.64600
Ni203      Ni  0.47411044  0.02711617  0.49929808     1.26300
O204        O  0.02548218  0.47336481  0.94862087    -0.64800
O205        O  0.48110316  0.07589376  0.48982251    -0.77100
C206        C  0.40927037  0.99255687  0.00453905     0.86300
O207        O  0.42639852  0.02334559  0.50641765    -0.64300
Ni208      Ni  0.05307879  0.05916088  0.52178088     1.27400
Ni209      Ni  0.03024338  0.47761289  0.00061109     1.26100
H210        H  0.46945344  0.47092294  0.53559119     0.40900
O211        O  0.41014633  0.47602299  0.72779533    -0.79100
O212        O  0.06734455  0.47557564  0.74205658    -0.63800
O213        O  0.47316699  0.47420541  0.75570410    -1.10400
C214        C  0.51141084  0.09414761  0.76778798     1.07800
O215        O  0.08945281  0.02132654  0.77572375    -0.77000
O216        O  0.03332735  0.01793287  0.82038465    -0.64500
Ni217      Ni  0.44233060  0.44916056  0.72209942     1.34900
C218        C  0.00164109  0.01336117  0.82904234     0.86600
O219        O  0.00999264  0.42460912  0.75375573    -0.77500
O220        O  0.46851293  0.41639063  0.71385552    -0.87800
C221        C  0.09310993  0.49496565  0.75599013     0.86100
O222        O  0.46586066  0.48074192  0.68221787    -0.66000
O223        O  0.03234665  0.08284618  0.78782610    -0.85300
C224        C  0.49752094  0.48563874  0.67324251     0.87000
C225        C  0.98913828  0.40495078  0.73416541     1.08500
H226        H  0.03517383  0.03536933  0.72172780     0.40300
O227        O  0.02711000  0.02501540  0.74623583    -1.07900
O228        O  0.48065794  0.02203012  0.80667751    -0.64600
Ni229      Ni  0.48006829  0.02462316  0.75338460     1.26300
O230        O  0.01877606  0.47668075  0.69510284    -0.64800
O231        O  0.49030513  0.07445559  0.74846360    -0.77100
C232        C  0.40725596  0.00468810  0.74501844     0.86300
O233        O  0.43292870  0.02373684  0.75935941    -0.64300
Ni234      Ni  0.05778761  0.04911917  0.78054436     1.27400
Ni235      Ni  0.02016833  0.47452636  0.74832488     1.26100
H236        H  0.46532459  0.46442389  0.78041887     0.40900
O237        O  0.31077527  0.01575193  0.00011999    -0.72600
O238        O  0.22330742  0.03635316  0.99742716    -0.72600
O239        O  0.26008912  0.03294609  0.54783197    -0.72700
O240        O  0.26848020  0.02750066  0.94600224    -0.72700
O241        O  0.24616474  0.47488877  0.94884558    -0.72700
O242        O  0.23560661  0.45527307  0.55661590    -0.72600
O243        O  0.18715473  0.45668995  0.50588685    -0.72600
O244        O  0.28074764  0.45156322  0.50178097    -0.72700
Ni245      Ni  0.26790712  0.02801974  0.99853139     1.25400
Ni246      Ni  0.23337974  0.45234447  0.50433244     1.25400
C247        C  0.31211594  0.98399303  0.00192805     0.89600
C248        C  0.18594495  0.01526322  0.50334038     0.89500
C249        C  0.24826962  0.00471635  0.56886284     0.89500
C250        C  0.25545597  0.99958267  0.93088086     0.89700
O251        O  0.30679538  0.02568997  0.74500220    -0.72600
O252        O  0.21556686  0.03770236  0.74985818    -0.72600
O253        O  0.26299874  0.03079437  0.79963782    -0.72700
O254        O  0.25983697  0.03320226  0.69489967    -0.72700
O255        O  0.23630473  0.46413415  0.70324603    -0.72700
O256        O  0.24232073  0.47167953  0.80671428    -0.72600
O257        O  0.19378516  0.47450705  0.75667229    -0.72600
O258        O  0.28476357  0.46185575  0.75302293    -0.72700
Ni259      Ni  0.26204186  0.03394696  0.74714903     1.25400
Ni260      Ni  0.23847155  0.46597624  0.75532655     1.25400
C261        C  0.31073733  0.48855654  0.74723542     0.89600
C262        C  0.19030063  0.50555109  0.75230331     0.89500
C263        C  0.25459113  0.50154566  0.81827037     0.89500
C264        C  0.24679917  0.49157514  0.68080732     0.89700
C265        C  0.25716383  0.50389591  0.85712979    -0.11500
C266        C  0.25541609  0.00066076  0.89151428    -0.13000
C267        C  0.24567268  0.48839837  0.64193990    -0.11500
C268        C  0.24910326  0.00558369  0.60796512    -0.13000
C269        C  0.15610226  0.51185008  0.75509385    -0.14600
C270        C  0.12662651  0.48696142  0.75279199    -0.29800
H271        H  0.15299287  0.04174974  0.76068810     0.14400
H272        H  0.12718636  0.46091278  0.74718212     0.15000
C273        C  0.37380829  0.01282802  0.74801582    -0.14600
C274        C  0.34449038  0.98860523  0.74308096    -0.29800
H275        H  0.37310204  0.03824608  0.75565229     0.14400
H276        H  0.34699473  0.45690324  0.74222011     0.15000
C277        C  0.13407051  0.51611999  0.50724010    -0.14600
C278        C  0.15221672  0.02275388  0.50584124    -0.29800
H279        H  0.13293396  0.96887200  0.99256524     0.14400
H280        H  0.12434937  0.46270968  0.50115058     0.15200
C281        C  0.37521453  0.99957028  0.00772874    -0.14600
C282        C  0.34580300  0.97594495  0.00130595    -0.29800
H283        H  0.36606507  0.03484458  0.50251920     0.14400
H284        H  0.35026896  0.45298338  0.99321262     0.15000
C285        C  0.51275166  0.49040181  0.88857263    -0.14600
C286        C  0.48854475  0.99836254  0.86656058    -0.29800
H287        H  0.53581830  0.99065043  0.88372885     0.14400
H288        H  0.96497076  0.49742035  0.87178582     0.15000
C289        C  0.48775677  0.01135739  0.61241659    -0.14600
C290        C  0.51037980  0.50159468  0.63611278    -0.29800
H291        H  0.96091235  0.00859721  0.61993654     0.14400
H292        H  0.53718420  0.50418674  0.62855026     0.15000
C293        C  0.51229005  0.35318619  0.74691156    -0.14600
C294        C  0.98760948  0.36760614  0.73424384    -0.29800
H295        H  0.03613350  0.36944782  0.75610008     0.14400
H296        H  0.46485743  0.35119811  0.72306860     0.15000
C297        C  0.48837514  0.14587179  0.75396998    -0.14600
C298        C  0.51279646  0.13149293  0.76756149    -0.29800
H299        H  0.46474653  0.12952044  0.74437584     0.14400
H300        H  0.03529974  0.14799676  0.77905048     0.15000
C301        C  0.50099907  0.24400354  0.89216341    -0.11500
C302        C  0.50000195  0.24400848  0.85922311    -0.13000
C303        C  0.50076648  0.25535869  0.64099044    -0.11500
C304        C  0.50133982  0.25632982  0.60794656    -0.13000
C305        C  0.98775537  0.34244254  0.98998924    -0.14600
C306        C  0.01191776  0.37139991  0.99620691    -0.29800
H307        H  0.46161407  0.34362017  0.98445060     0.14400
H308        H  0.03739617  0.36970951  0.00403018     0.15000
C309        C  0.52188365  0.16176146  0.51074812    -0.14600
C310        C  0.49665625  0.13373944  0.50408106    -0.29800
H311        H  0.54721327  0.15908194  0.51787090     0.14400
H312        H  0.97470252  0.12683098  0.00386980     0.15000
O313        O  0.45411521  0.78515569  0.49463272    -0.72600
O314        O  0.48733849  0.69160816  0.00625543    -0.72600
O315        O  0.47640170  0.73772069  0.05154599    -0.72700
O316        O  0.46164247  0.73799125  0.44880736    -0.72700
O317        O  0.01799508  0.76406358  0.44218708    -0.72700
O318        O  0.03280850  0.76371437  0.04875959    -0.72600
O319        O  0.04365490  0.71795485  0.00306702    -0.72600
O320        O  0.01048418  0.81109897  0.48838153    -0.72700
Ni321      Ni  0.47520740  0.73473990  0.99953677     1.25400
Ni322      Ni  0.02233864  0.76784223  0.49396914     1.25400
C323        C  0.97918766  0.81272663  0.48993809     0.89600
C324        C  0.01872764  0.69026449  0.00684310     0.89500
C325        C  0.50427677  0.75138227  0.06716148     0.89500
C326        C  0.48913494  0.74987054  0.42857584     0.89700
O327        O  0.02597401  0.75645942  0.19691798    -0.72600
O328        O  0.01864569  0.75082389  0.30180302    -0.72600
O329        O  0.01695567  0.70409540  0.25199725    -0.72700
O330        O  0.02694852  0.80303975  0.24708560    -0.72700
O331        O  0.46992481  0.79276855  0.24406673    -0.72700
O332        O  0.45999256  0.69432087  0.24927986    -0.72600
O333        O  0.46154323  0.74099017  0.29956619    -0.72600
O334        O  0.46889218  0.74634344  0.19428350    -0.72700
Ni335      Ni  0.02416595  0.75392308  0.24951862     1.25400
Ni336      Ni  0.46306266  0.74325736  0.24675918     1.25400
C337        C  0.49868167  0.75208868  0.17845783     0.89600
C338        C  0.48904149  0.74544992  0.31779389     0.89500
C339        C  0.48684036  0.68294974  0.25116392     0.89500
C340        C  0.49984519  0.81413724  0.24482959     0.89700
O341        O  0.40348279  0.97475272  0.48011174    -0.79100
O342        O  0.06349436  0.98477157  0.49263403    -0.63800
O343        O  0.47798112  0.97020139  0.01413803    -1.10400
C344        C  0.51040836  0.59305797  0.00892820     1.07800
O345        O  0.10168241  0.53499263  0.01023691    -0.77000
O346        O  0.05133673  0.53165430  0.06189094    -0.64500
Ni347      Ni  0.43726874  0.94868991  0.47780578     1.34900
C348        C  0.02071243  0.52205328  0.07542773     0.86600
O349        O  0.00927559  0.93261803  0.50964007    -0.77500
O350        O  0.46501183  0.91627592  0.47379669    -0.87800
C351        C  0.09893960  0.00248398  0.00149874     0.86100
O352        O  0.45868499  0.97680633  0.43448140    -0.66000
O353        O  0.03748063  0.58905608  0.02400107    -0.85300
C354        C  0.49041370  0.98330963  0.42491599     0.87000
C355        C  0.98940541  0.90992612  0.49252383     1.08500
H356        H  0.03346344  0.54204220  0.46684837     0.40300
O357        O  0.02656008  0.53394033  0.49221801    -1.07900
O358        O  0.49443963  0.52331448  0.05652163    -0.64600
Ni359      Ni  0.48595978  0.52069977  0.00431498     1.26300
O360        O  0.01315455  0.97868181  0.44732277    -0.64800
O361        O  0.48929343  0.56872472  0.99525853    -0.77100
C362        C  0.40510784  0.49678101  0.49434739     0.86300
O363        O  0.43873276  0.51421515  0.01693303    -0.64300
Ni364      Ni  0.06655469  0.55869783  0.01636969     1.27400
Ni365      Ni  0.01600425  0.98121807  0.50000375     1.26100
H366        H  0.47237438  0.96152105  0.03961790     0.40900
O367        O  0.39150620  0.96692884  0.23724231    -0.79100
O368        O  0.05288836  0.97741565  0.23183220    -0.63800
O369        O  0.45874224  0.97045990  0.25631789    -1.10400
C370        C  0.50696804  0.59327070  0.26186626     1.07800
O371        O  0.08341529  0.51678142  0.26878912    -0.77000
O372        O  0.03166480  0.52035796  0.31516269    -0.64500
Ni373      Ni  0.42473750  0.94191016  0.22802702     1.34900
C374        C  0.00039396  0.51558942  0.32544110     0.86600
O375        O  0.99848194  0.92339206  0.24935112    -0.77500
O376        O  0.45175589  0.91075278  0.21661970    -0.87800
C377        C  0.07829618  0.99631891  0.24699077     0.86100
O378        O  0.44206941  0.97207109  0.18494642    -0.66000
O379        O  0.03141457  0.58377087  0.27759374    -0.85300
C380        C  0.47281769  0.97944683  0.17188102     0.87000
C381        C  0.97613661  0.90190772  0.23298573     1.08500
H382        H  0.02716833  0.53508714  0.21524993     0.40300
O383        O  0.02094556  0.52422497  0.23997826    -1.07900
O384        O  0.47769617  0.52137739  0.30376635    -0.64600
Ni385      Ni  0.47405649  0.52231706  0.25109205     1.26300
O386        O  0.99795556  0.97413708  0.19069508    -0.64800
O387        O  0.48307734  0.57233023  0.24632405    -0.77100
C388        C  0.39983513  0.49721893  0.25168909     0.86300
O389        O  0.42652030  0.51965058  0.26025293    -0.64300
Ni390      Ni  0.05440675  0.54781016  0.27210356     1.27400
Ni391      Ni  0.00557985  0.97310443  0.24336823     1.26100
H392        H  0.45406200  0.96204929  0.28197488     0.40900
O393        O  0.29962203  0.50952811  0.49521395    -0.72600
O394        O  0.20503024  0.51471930  0.49920231    -0.72600
O395        O  0.27124841  0.52971991  0.04908301    -0.72700
O396        O  0.25079357  0.51208900  0.44511861    -0.72700
O397        O  0.22873224  0.97327777  0.45182227    -0.72700
O398        O  0.23879619  0.96745052  0.05504548    -0.72600
O399        O  0.19697239  0.97948037  0.00125262    -0.72600
O400        O  0.28458065  0.95888750  0.00344975    -0.72700
Ni401      Ni  0.25303029  0.51450274  0.49700878     1.25400
Ni402      Ni  0.23972557  0.96706288  0.00262793     1.25400
C403        C  0.30558180  0.47938108  0.49741165     0.89600
C404        C  0.20092668  0.51633637  0.99809465     0.89500
C405        C  0.25691452  0.50115188  0.06858795     0.89500
C406        C  0.24086008  0.48304067  0.43134470     0.89700
O407        O  0.29931176  0.51542676  0.25115589    -0.72600
O408        O  0.20951195  0.53000084  0.24794528    -0.72600
O409        O  0.25154844  0.51867726  0.30197132    -0.72700
O410        O  0.25749067  0.52618178  0.19654364    -0.72700
O411        O  0.22514495  0.96730133  0.20161828    -0.72700
O412        O  0.22136054  0.96946118  0.30633937    -0.72600
O413        O  0.17829584  0.97639130  0.25125156    -0.72600
O414        O  0.26726021  0.95987222  0.25649235    -0.72700
Ni415      Ni  0.25521423  0.52464086  0.24928756     1.25400
Ni416      Ni  0.22204325  0.96622771  0.25419715     1.25400
C417        C  0.29413675  0.98565225  0.25353338     0.89600
C418        C  0.17575037  0.00774036  0.24761031     0.89500
C419        C  0.23375406  0.99841584  0.31984222     0.89500
C420        C  0.23859560  0.99562243  0.18123400     0.89700
C421        C  0.23471115  0.99919871  0.35898748    -0.11500
C422        C  0.23922871  0.48336777  0.39216242    -0.13000
C423        C  0.24252436  0.99478498  0.14223329    -0.11500
C424        C  0.25415347  0.50097419  0.10784027    -0.13000
C425        C  0.14150252  0.01438078  0.24768383    -0.14600
C426        C  0.11235856  0.98951358  0.24320618    -0.29800
H427        H  0.14785184  0.53618399  0.25646093     0.14400
H428        H  0.11354378  0.96391387  0.23662405     0.15000
C429        C  0.36576020  0.50360660  0.25674473    -0.14600
C430        C  0.33676994  0.47828099  0.25291848    -0.29800
H431        H  0.36444711  0.52946587  0.26222330     0.14400
H432        H  0.32826930  0.95135496  0.25171075     0.15000
C433        C  0.13264143  0.99522177  0.99729279    -0.14600
C434        C  0.16739034  0.52450716  0.99855702    -0.29800
H435        H  0.15362468  0.53997472  0.51107220     0.14400
H436        H  0.16223329  0.04627439  0.00333951     0.15200
C437        C  0.36978285  0.50171119  0.49663467    -0.14600
C438        C  0.34119671  0.47551099  0.49431954    -0.29800
H439        H  0.37951897  0.52798981  0.01229054     0.14400
H440        H  0.33815578  0.95752396  0.49059460     0.15000
C441        C  0.50186823  0.99620289  0.38644409    -0.14600
C442        C  0.48930119  0.50311648  0.36396470    -0.29800
H443        H  0.53810682  0.50006819  0.38153817     0.14400
H444        H  0.95375899  0.00188062  0.36944723     0.15000
C445        C  0.51613553  0.50906695  0.11484288    -0.14600
C446        C  0.47875528  0.99383772  0.13304207    -0.29800
H447        H  0.03906590  0.50860694  0.12993010     0.14400
H448        H  0.45631253  0.99498717  0.11733948     0.15000
C449        C  0.50299272  0.85209674  0.24365336    -0.14600
C450        C  0.97694018  0.86516018  0.23236165    -0.29800
H451        H  0.02669006  0.86928828  0.25219188     0.14400
H452        H  0.45412525  0.84768781  0.22234116     0.15000
C453        C  0.48269171  0.64485166  0.25181337    -0.14600
C454        C  0.50824687  0.63064271  0.26199444    -0.29800
H455        H  0.45829579  0.62833586  0.24414596     0.14400
H456        H  0.03190904  0.64743358  0.27104294     0.15000
C457        C  0.48756432  0.74708709  0.38975616    -0.11500
C458        C  0.48710569  0.74537805  0.35701725    -0.13000
C459        C  0.50150052  0.75306425  0.13916503    -0.11500
C460        C  0.50331800  0.75276715  0.10625361    -0.13000
C461        C  0.97187290  0.84693052  0.48680303    -0.14600
C462        C  0.99614267  0.87560018  0.49352146    -0.29800
H463        H  0.44589410  0.84835786  0.48094310     0.14400
H464        H  0.02138324  0.87358836  0.50190308     0.15000
C465        C  0.52662096  0.65639254  0.01151839    -0.14600
C466        C  0.50244881  0.62682941  0.00756337    -0.29800
H467        H  0.55304447  0.65589993  0.01637446     0.14400
H468        H  0.96534153  0.63311285  0.49247900     0.15000
O469        O  0.46717473  0.77985138  0.99256580    -0.72600
O470        O  0.47396713  0.69650707  0.50650946    -0.72600
O471        O  0.46625279  0.74322258  0.55268084    -0.72700
O472        O  0.47789089  0.73368455  0.94734682    -0.72700
O473        O  0.03413137  0.76046269  0.94410430    -0.72700
O474        O  0.02259139  0.76944474  0.54612644    -0.72600
O475        O  0.03030260  0.72278734  0.50045310    -0.72600
O476        O  0.02349724  0.80616885  0.99042869    -0.72700
Ni477      Ni  0.46195424  0.73980633  0.50091357     1.25400
Ni478      Ni  0.03556359  0.76303117  0.99639687     1.25400
C479        C  0.99209677  0.80751476  0.98996850     0.89600
C480        C  0.00539182  0.69516459  0.50540186     0.89500
C481        C  0.49518614  0.75686032  0.56638027     0.89500
C482        C  0.50617621  0.74657985  0.92863639     0.89700
O483        O  0.02892058  0.75863316  0.69280714    -0.72600
O484        O  0.03196049  0.75250818  0.79785603    -0.72600
O485        O  0.02524881  0.70607992  0.74698073    -0.72700
O486        O  0.03536409  0.80488747  0.74413595    -0.72700
O487        O  0.47819607  0.79470559  0.74759188    -0.72700
O488        O  0.46808207  0.69613159  0.75036052    -0.72600
O489        O  0.47476121  0.74244033  0.80186820    -0.72600
O490        O  0.47168694  0.74855677  0.69679007    -0.72700
Ni491      Ni  0.03241285  0.75585504  0.74524719     1.25400
Ni492      Ni  0.47116161  0.74509016  0.74935626     1.25400
C493        C  0.49982329  0.75461393  0.67766869     0.89600
C494        C  0.50387220  0.74672482  0.81702151     0.89500
C495        C  0.49497112  0.68483523  0.74910117     0.89500
C496        C  0.50835049  0.81603838  0.74540008     0.89700
O497        O  0.41231562  0.96725345  0.98723598    -0.79100
O498        O  0.07271101  0.97925278  0.99393218    -0.63800
O499        O  0.46841532  0.97794523  0.50828007    -1.10400
C500        C  0.49898157  0.59869960  0.50513276     1.07800
O501        O  0.09176635  0.54375522  0.52169285    -0.77000
O502        O  0.03407540  0.53591081  0.56558578    -0.64500
Ni503      Ni  0.44616710  0.94112241  0.98419872     1.34900
C504        C  0.00205848  0.52744119  0.57426192     0.86600
O505        O  0.01985777  0.92650233  0.01391687    -0.77500
O506        O  0.47434441  0.90909253  0.97971028    -0.87800
C507        C  0.08893024  0.00579303  0.50515686     0.86100
O508        O  0.46631537  0.96904754  0.94010610    -0.66000
O509        O  0.02293156  0.59415119  0.52575869    -0.85300
C510        C  0.49777616  0.97519520  0.92971534     0.87000
C511        C  0.99969702  0.90343713  0.99739202     1.08500
H512        H  0.03684846  0.53382337  0.96469211     0.40300
O513        O  0.03319560  0.52638648  0.99067516    -1.07900
O514        O  0.47946224  0.53144715  0.55145405    -0.64600
Ni515      Ni  0.47801254  0.52705495  0.49914685     1.26300
O516        O  0.02083764  0.97049446  0.95146556    -0.64800
O517        O  0.48132674  0.57488433  0.48761760    -0.77100
C518        C  0.41364535  0.49463684  0.00221694     0.86300
O519        O  0.42953762  0.52013312  0.50543983    -0.64300
Ni520      Ni  0.05460962  0.56555313  0.52289007     1.27400
Ni521      Ni  0.02536848  0.97482818  0.00348875     1.26100
H522        H  0.46179363  0.96969634  0.53367494     0.40900
O523        O  0.40889562  0.97872183  0.72821656    -0.79100
O524        O  0.06618144  0.97689309  0.74331301    -0.63800
O525        O  0.47146093  0.97458536  0.75754044    -1.10400
C526        C  0.51360433  0.59450936  0.76330692     1.07800
O527        O  0.09147849  0.52106107  0.77262891    -0.77000
O528        O  0.03586710  0.51922919  0.81729303    -0.64500
Ni529      Ni  0.44005828  0.95024993  0.72390847     1.34900
C530        C  0.00421774  0.51454568  0.82620525     0.86600
O531        O  0.00888412  0.92517602  0.75406438    -0.77500
O532        O  0.46491072  0.91596458  0.71692304    -0.87800
C533        C  0.09175418  0.99637039  0.75761172     0.86100
O534        O  0.46407955  0.98067095  0.68341161    -0.66000
O535        O  0.03487548  0.58351701  0.78323348    -0.85300
C536        C  0.49579886  0.98594286  0.67456031     0.87000
C537        C  0.98715068  0.90523109  0.73547573     1.08500
H538        H  0.03669987  0.53436346  0.71871786     0.40300
O539        O  0.02880934  0.52453019  0.74342895    -1.07900
O540        O  0.48281677  0.52256573  0.80384554    -0.64600
Ni541      Ni  0.48169896  0.52428143  0.75056414     1.26300
O542        O  0.01734966  0.97800951  0.69667898    -0.64800
O543        O  0.49192308  0.57432799  0.74484466    -0.77100
C544        C  0.40833082  0.50240467  0.74370954     0.86300
O545        O  0.43421690  0.52299807  0.75633725    -0.64300
Ni546      Ni  0.06006066  0.54939447  0.77672862     1.27400
Ni547      Ni  0.01867620  0.97510664  0.74988362     1.26100
H548        H  0.46370356  0.96445617  0.78218507     0.40900
O549        O  0.31586428  0.51981856  0.99735650    -0.72600
O550        O  0.22856195  0.54131943  0.99606409    -0.72600
O551        O  0.25390871  0.51332926  0.54935587    -0.72700
O552        O  0.27282900  0.53174312  0.94403324    -0.72700
O553        O  0.24201932  0.97062033  0.95006467    -0.72700
O554        O  0.23520761  0.97570359  0.55586190    -0.72600
O555        O  0.18790900  0.98366921  0.50641820    -0.72600
O556        O  0.27646548  0.96556560  0.50095828    -0.72700
Ni557      Ni  0.27317404  0.53267520  0.99644369     1.25400
Ni558      Ni  0.23122972  0.97250488  0.50408292     1.25400
C559        C  0.31680109  0.48789050  0.99957131     0.89600
C560        C  0.18053104  0.48635561  0.50284811     0.89500
C561        C  0.24497793  0.48465606  0.57008099     0.89500
C562        C  0.25941727  0.50371785  0.92930275     0.89700
O563        O  0.30695882  0.51940460  0.74253374    -0.72600
O564        O  0.21638768  0.53199501  0.74619261    -0.72600
O565        O  0.26467177  0.52920476  0.79599918    -0.72700
O566        O  0.25861986  0.52163105  0.69223831    -0.72700
O567        O  0.23745905  0.97551986  0.69977014    -0.72700
O568        O  0.24088373  0.97307883  0.80472698    -0.72600
O569        O  0.19350283  0.98001378  0.75461219    -0.72600
O570        O  0.28420872  0.96805951  0.74946208    -0.72700
Ni571      Ni  0.26239502  0.52760880  0.74378316     1.25400
Ni572      Ni  0.23819858  0.97212417  0.75236717     1.25400
C573        C  0.31028971  0.99467864  0.74618309     0.89600
C574        C  0.18959648  0.01081550  0.75315373     0.89500
C575        C  0.25264930  0.00157448  0.81928509     0.89500
C576        C  0.24856952  0.00475345  0.68022204     0.89700
C577        C  0.25429435  0.00090034  0.85854726    -0.11500
C578        C  0.25878373  0.50453921  0.88997816    -0.13000
C579        C  0.24882854  0.00555488  0.64092419    -0.11500
C580        C  0.24523583  0.48585245  0.60928412    -0.13000
C581        C  0.15483428  0.01582814  0.75611945    -0.14600
C582        C  0.12596694  0.99011050  0.75316261    -0.29800
H583        H  0.15527455  0.53835425  0.75836405     0.14400
H584        H  0.12753012  0.96467199  0.74642599     0.15000
C585        C  0.37424799  0.50901776  0.74745220    -0.14600
C586        C  0.34533775  0.48319252  0.74525409    -0.29800
H587        H  0.37280170  0.53489631  0.75269468     0.14400
H588        H  0.34537183  0.96262009  0.73753108     0.15000
C589        C  0.12265531  0.99822519  0.50273067    -0.14600
C590        C  0.14384349  0.48703911  0.50321319    -0.29800
H591        H  0.13859982  0.47393103  0.98952594     0.14400
H592        H  0.15176343  0.04929854  0.50941767     0.15200
C593        C  0.37990125  0.50242247  0.00482458    -0.14600
C594        C  0.35018806  0.47919069  0.99871892    -0.29800
H595        H  0.36724334  0.52726169  0.50174318     0.14400
H596        H  0.34640168  0.95001265  0.99529305     0.15000
C597        C  0.50903584  0.98812863  0.89134329    -0.14600
C598        C  0.49171601  0.50002511  0.86398565    -0.29800
H599        H  0.53954376  0.49333040  0.88065075     0.14400
H600        H  0.96180238  0.99616194  0.87401944     0.15000
C601        C  0.48993423  0.51265518  0.61187409    -0.14600
C602        C  0.50841864  0.00115888  0.63707384    -0.29800
H603        H  0.96300471  0.50957065  0.61928145     0.14400
H604        H  0.53522269  0.00373253  0.62953769     0.15000
C605        C  0.51213433  0.85407585  0.74486137    -0.14600
C606        C  0.98621477  0.86796017  0.73495221    -0.29800
H607        H  0.03654088  0.87085328  0.75218798     0.14400
H608        H  0.46275419  0.85107300  0.72554559     0.15000
C609        C  0.49075601  0.64670840  0.74988474    -0.14600
C610        C  0.51542536  0.63213430  0.76243157    -0.29800
H611        H  0.46670839  0.63035570  0.74119041     0.14400
H612        H  0.03832949  0.64863574  0.77331285     0.15000
C613        C  0.50621966  0.74575918  0.88938006    -0.11500
C614        C  0.50519231  0.74562909  0.85639922    -0.13000
C615        C  0.49862409  0.75666891  0.63837440    -0.11500
C616        C  0.49708543  0.75742850  0.60544203    -0.13000
C617        C  0.98437656  0.84143132  0.98726500    -0.14600
C618        C  0.00716136  0.86950921  0.99772078    -0.29800
H619        H  0.45902908  0.84291311  0.97880692     0.14400
H620        H  0.03167342  0.86726861  0.00823690     0.15000
C621        C  0.51339805  0.66143340  0.50974502    -0.14600
C622        C  0.49038416  0.63217341  0.50246140    -0.29800
H623        H  0.53929506  0.66090535  0.51717779     0.14400
H624        H  0.97647704  0.62764182  0.00067226     0.15000
O625        O  0.97048208  0.29026483  0.49334301    -0.72600
O626        O  0.98774727  0.19136120  0.00935484    -0.72600
O627        O  0.98184419  0.23865065  0.05569730    -0.72700
O628        O  0.98101636  0.24507332  0.44696523    -0.72700
O629        O  0.53773351  0.26912213  0.44696327    -0.72700
O630        O  0.53836781  0.26372386  0.04837328    -0.72600
O631        O  0.54421910  0.21645609  0.00219237    -0.72600
O632        O  0.52714741  0.31451221  0.49385631    -0.72700
Ni633      Ni  0.97675901  0.23515495  0.00395269     1.25400
Ni634      Ni  0.53697949  0.26994718  0.49932714     1.25400
C635        C  0.49618352  0.31719616  0.49196294     0.89600
C636        C  0.51887099  0.18917526  0.00766014     0.89500
C637        C  0.01108381  0.25198980  0.06898246     0.89500
C638        C  0.01031066  0.25701262  0.42991325     0.89700
O639        O  0.54363595  0.26383430  0.19587127    -0.72600
O640        O  0.54285607  0.26411035  0.30072012    -0.72600
O641        O  0.54419293  0.21608996  0.25363102    -0.72700
O642        O  0.54257007  0.31190962  0.24348243    -0.72700
O643        O  0.98510653  0.29545447  0.24510045    -0.72700
O644        O  0.98678747  0.19920165  0.25503694    -0.72600
O645        O  0.98538372  0.24733922  0.30256130    -0.72600
O646        O  0.98611257  0.24730837  0.19797485    -0.72700
Ni647      Ni  0.54535400  0.26455849  0.24829735     1.25400
Ni648      Ni  0.98378618  0.24673316  0.25026820     1.25400
C649        C  0.01493220  0.25548896  0.17983724     0.89600
C650        C  0.01393878  0.25584883  0.31869981     0.89500
C651        C  0.01594489  0.19190263  0.25594158     0.89500
C652        C  0.01361278  0.31948936  0.24277951     0.89700
O653        O  0.90991632  0.46986684  0.48135248    -0.79100
O654        O  0.57388740  0.49340115  0.49700562    -0.63800
O655        O  0.98272470  0.47227738  0.01176996    -1.10400
C656        C  0.00768375  0.09112142  0.01117564     1.07800
O657        O  0.59734604  0.03098658  0.01322260    -0.77000
O658        O  0.54663343  0.02797993  0.06462993    -0.64500
Ni659      Ni  0.94711963  0.44736813  0.48011610     1.34900
C660        C  0.51583941  0.01902889  0.07771923     0.86600
O661        O  0.52161250  0.43762431  0.51368206    -0.77500
O662        O  0.97837066  0.41822057  0.47726647    -0.87800
C663        C  0.60379631  0.50663853  0.99859533     0.86100
O664        O  0.96789953  0.47609510  0.43692096    -0.66000
O665        O  0.53418480  0.08630167  0.02693008    -0.85300
C666        C  0.99985401  0.48405722  0.42770227     0.87000
C667        C  0.50318963  0.41375810  0.49663647     1.08500
H668        H  0.52844418  0.03865420  0.46575066     0.40300
O669        O  0.52175014  0.03034318  0.49111652    -1.07900
O670        O  0.99005920  0.02137070  0.05851309    -0.64600
Ni671      Ni  0.98194725  0.01879294  0.00633458     1.26300
O672        O  0.52298681  0.48155364  0.45049023    -0.64800
O673        O  0.98623762  0.06711585  0.99728484    -0.77100
C674        C  0.90093982  0.00179159  0.49445826     0.86300
O675        O  0.93457158  0.01284657  0.01837598    -0.64300
Ni676      Ni  0.56269630  0.05534462  0.01941477     1.27400
Ni677      Ni  0.52485931  0.48571508  0.50291100     1.26100
H678        H  0.97742827  0.46350175  0.03726552     0.40900
O679        O  0.90078862  0.46952134  0.23796822    -0.79100
O680        O  0.56103818  0.47932204  0.22868701    -0.63800
O681        O  0.96763858  0.47219543  0.25600068    -1.10400
C682        C  0.99491379  0.09211508  0.25526819     1.07800
O683        O  0.57562166  0.02056118  0.26611570    -0.77000
O684        O  0.52306058  0.02281467  0.31266866    -0.64500
Ni685      Ni  0.93309466  0.44412552  0.22778049     1.34900
C686        C  0.49162916  0.01720750  0.32287494     0.86600
O687        O  0.50716596  0.42564507  0.24573015    -0.77500
O688        O  0.95907499  0.41230392  0.21542075    -0.87800
C689        C  0.58617347  0.49504966  0.24645532     0.86100
O690        O  0.94954554  0.47425531  0.18448172    -0.66000
O691        O  0.51958134  0.08459007  0.27265484    -0.85300
C692        C  0.98012975  0.48267598  0.17089935     0.87000
C693        C  0.48430253  0.40393881  0.23036757     1.08500
H694        H  0.51787504  0.03199337  0.21304808     0.40300
O695        O  0.51182472  0.02250039  0.23823995    -1.07900
O696        O  0.96873446  0.02213196  0.30095331    -0.64600
Ni697      Ni  0.96488252  0.02026364  0.24842302     1.26300
O698        O  0.50589904  0.47836474  0.18921218    -0.64800
O699        O  0.97270914  0.06956335  0.23998179    -0.77100
C700        C  0.89092934  0.99540979  0.24952056     0.86300
O701        O  0.91773114  0.01793542  0.25714970    -0.64300
Ni702      Ni  0.54460963  0.04965794  0.26866193     1.27400
Ni703      Ni  0.51417872  0.47504024  0.24181043     1.26100
H704        H  0.96348849  0.46278580  0.28143486     0.40900
O705        O  0.80141934  0.02278070  0.49332929    -0.72600
O706        O  0.71298011  0.04086193  0.49842147    -0.72600
O707        O  0.76497937  0.02441092  0.05124109    -0.72700
O708        O  0.75392271  0.03046512  0.44352028    -0.72700
O709        O  0.73235555  0.45396281  0.45172108    -0.72700
O710        O  0.74434486  0.47288936  0.05387196    -0.72600
O711        O  0.70197419  0.48446982  0.00039713    -0.72600
O712        O  0.78903970  0.46303812  0.00187127    -0.72700
Ni713      Ni  0.75804759  0.03380975  0.49543906     1.25400
Ni714      Ni  0.74449878  0.47178572  0.00146724     1.25400
C715        C  0.80351212  0.99124704  0.49633101     0.89600
C716        C  0.69580013  0.01131304  0.99922051     0.89500
C717        C  0.75062265  0.99553607  0.07026890     0.89500
C718        C  0.74006740  0.00148908  0.43069626     0.89700
O719        O  0.79193920  0.01713977  0.24949162    -0.72600
O720        O  0.70258656  0.03373094  0.24503593    -0.72600
O721        O  0.74611003  0.02672544  0.29923749    -0.72700
O722        O  0.74932652  0.02469433  0.19489420    -0.72700
O723        O  0.73414927  0.46883485  0.19803348    -0.72700
O724        O  0.72802927  0.46136618  0.30310521    -0.72600
O725        O  0.68589058  0.47278463  0.24874903    -0.72600
O726        O  0.77606231  0.45809760  0.25231988    -0.72700
Ni727      Ni  0.74826417  0.02765048  0.24687874     1.25400
Ni728      Ni  0.73013868  0.46322152  0.25058035     1.25400
C729        C  0.80241608  0.48435129  0.25244257     0.89600
C730        C  0.68300075  0.50397685  0.24822111     0.89500
C731        C  0.73925108  0.48864915  0.31972593     0.89500
C732        C  0.74723981  0.49856145  0.18014239     0.89700
C733        C  0.73863912  0.48538573  0.35913889    -0.11500
C734        C  0.73703817  0.00044035  0.39172051    -0.13000
C735        C  0.75098088  0.50059821  0.14078886    -0.11500
C736        C  0.74672429  0.99481521  0.10948626    -0.13000
C737        C  0.64890053  0.51072735  0.24931134    -0.14600
C738        C  0.61970653  0.48728860  0.24210641    -0.29800
H739        H  0.64022094  0.04052326  0.25208392     0.14400
H740        H  0.62051243  0.46255580  0.23264419     0.15000
C741        C  0.85750565  0.00312763  0.25424657    -0.14600
C742        C  0.82786970  0.97819136  0.25345602    -0.29800
H743        H  0.85724119  0.02978176  0.25751640     0.14400
H744        H  0.83820267  0.45214607  0.24879813     0.15000
C745        C  0.63785179  0.50000436  0.99480473    -0.14600
C746        C  0.66237855  0.01962544  0.99990264    -0.29800
H747        H  0.62323034  0.97221752  0.49709677     0.14400
H748        H  0.66693395  0.55094080  0.00256933     0.15200
C749        C  0.86692900  0.00886047  0.49705242    -0.14600
C750        C  0.83745788  0.98403599  0.49409605    -0.29800
H751        H  0.87435509  0.02485926  0.01564464     0.14400
H752        H  0.84385161  0.44958007  0.49106173     0.15000
C753        C  0.01110933  0.49620267  0.38916292    -0.14600
C754        C  0.98052967  0.00472295  0.36152129    -0.29800
H755        H  0.02866639  0.99911660  0.37861065     0.14400
H756        H  0.46238170  0.49961924  0.37175701     0.15000
C757        C  0.01036455  0.00567400  0.11692521    -0.14600
C758        C  0.98501044  0.49708690  0.13193432    -0.29800
H759        H  0.53280633  0.00469611  0.13264238     0.14400
H760        H  0.96209832  0.49776738  0.11686832     0.15000
C761        C  0.01360921  0.35663883  0.24019947    -0.14600
C762        C  0.48599626  0.36745672  0.22989906    -0.29800
H763        H  0.53697660  0.37553236  0.24696195     0.14400
H764        H  0.96324116  0.34864072  0.22161099     0.15000
C765        C  0.01783111  0.15529474  0.25988772    -0.14600
C766        C  0.99140213  0.12821856  0.25323327    -0.29800
H767        H  0.04249892  0.15072016  0.26685798     0.14400
H768        H  0.46726441  0.13287045  0.24415636     0.15000
C769        C  0.01236346  0.25671923  0.39076580    -0.11500
C770        C  0.01341999  0.25628249  0.35787178    -0.13000
C771        C  0.01483238  0.25503589  0.14065992    -0.11500
C772        C  0.01338038  0.25385495  0.10789024    -0.13000
C773        C  0.48928088  0.35155121  0.48824571    -0.14600
C774        C  0.51166406  0.38006154  0.49844916    -0.29800
H775        H  0.96413512  0.35295186  0.47889632     0.14400
H776        H  0.53594833  0.37826832  0.50991072     0.15000
C777        C  0.02585014  0.15478281  0.01185094    -0.14600
C778        C  0.00074536  0.12545124  0.00952700    -0.29800
H779        H  0.05228859  0.15364179  0.01529335     0.14400
H780        H  0.47200805  0.13682809  0.49487647     0.15000
O781        O  0.96969914  0.28078019  0.99791514    -0.72600
O782        O  0.98571584  0.19996380  0.50490336    -0.72600
O783        O  0.97552279  0.24512921  0.55163394    -0.72700
O784        O  0.97581738  0.23349119  0.95173342    -0.72700
O785        O  0.53223644  0.25889678  0.94452410    -0.72700
O786        O  0.53229844  0.26901683  0.55156295    -0.72600
O787        O  0.54245832  0.22353485  0.50513459    -0.72600
O788        O  0.52615440  0.30605872  0.99123466    -0.72700
Ni789      Ni  0.97618061  0.24427490  0.49923661     1.25400
Ni790      Ni  0.53726260  0.26219409  0.99624938     1.25400
C791        C  0.49497066  0.30812089  0.99309121     0.89600
C792        C  0.51642354  0.19679738  0.50679021     0.89500
C793        C  0.00305955  0.25694168  0.56867680     0.89500
C794        C  0.00311284  0.24545319  0.93115458     0.89700
O795        O  0.52903550  0.25713829  0.69664952    -0.72600
O796        O  0.52863670  0.25111669  0.80178771    -0.72600
O797        O  0.52306276  0.20477742  0.75134961    -0.72700
O798        O  0.53459764  0.30351218  0.74767313    -0.72700
O799        O  0.97748467  0.29427982  0.74904444    -0.72700
O800        O  0.96596189  0.19552837  0.75241424    -0.72600
O801        O  0.97147087  0.24177281  0.80359043    -0.72600
O802        O  0.97188162  0.24805851  0.69836945    -0.72700
Ni803      Ni  0.53086215  0.25444621  0.74923179     1.25400
Ni804      Ni  0.96965805  0.24459523  0.75096511     1.25400
C805        C  0.00054716  0.25352728  0.68034914     0.89600
C806        C  0.99998223  0.24553173  0.81984009     0.89500
C807        C  0.99269429  0.18390340  0.75256503     0.89500
C808        C  0.00786643  0.31512559  0.74781907     0.89700
O809        O  0.91681190  0.46957973  0.98451862    -0.79100
O810        O  0.57785464  0.48305203  0.99084622    -0.63800
O811        O  0.97617020  0.47884805  0.51015904    -1.10400
C812        C  0.00175072  0.09863558  0.50634746     1.07800
O813        O  0.58650661  0.03268410  0.51991189    -0.77000
O814        O  0.53125576  0.03115442  0.56492622    -0.64500
Ni815      Ni  0.95063815  0.44313843  0.98208709     1.34900
C816        C  0.49952213  0.02484261  0.57429471     0.86600
O817        O  0.52546211  0.42923228  0.01050667    -0.77500
O818        O  0.97871136  0.41080388  0.97820814    -0.87800
C819        C  0.59758957  0.51742377  0.50868903     0.86100
O820        O  0.97060077  0.47068313  0.93771933    -0.66000
O821        O  0.52570869  0.09187793  0.52546791    -0.85300
C822        C  0.00203920  0.47744583  0.92708539     0.87000
C823        C  0.50464838  0.40562751  0.99515075     1.08500
H824        H  0.53320029  0.03111666  0.96729309     0.40300
O825        O  0.52916222  0.02372002  0.99325498    -1.07900
O826        O  0.97693777  0.02980607  0.55186529    -0.64600
Ni827      Ni  0.97413368  0.02712637  0.49927422     1.26300
O828        O  0.52546834  0.47337579  0.94860034    -0.64800
O829        O  0.98115162  0.07590883  0.48979881    -0.77100
C830        C  0.90928555  0.99255378  0.00456537     0.86300
O831        O  0.92642169  0.02338003  0.50636490    -0.64300
Ni832      Ni  0.55305714  0.05917843  0.52178704     1.27400
Ni833      Ni  0.53022704  0.47760916  0.00059264     1.26100
H834        H  0.96946574  0.47092881  0.53559302     0.40900
O835        O  0.91013752  0.47601853  0.72776673    -0.79100
O836        O  0.56735133  0.47559307  0.74204376    -0.63800
O837        O  0.97315296  0.47418731  0.75569759    -1.10400
C838        C  0.01139628  0.09413799  0.76776357     1.07800
O839        O  0.58944768  0.02129211  0.77576475    -0.77000
O840        O  0.53333604  0.01795293  0.82041209    -0.64500
Ni841      Ni  0.94231996  0.44914884  0.72208334     1.34900
C842        C  0.50164818  0.01337572  0.82906307     0.86600
O843        O  0.51000531  0.42462838  0.75376428    -0.77500
O844        O  0.96850068  0.41637332  0.71384557    -0.87800
C845        C  0.59310647  0.49496570  0.75600773     0.86100
O846        O  0.96585647  0.48073227  0.68220769    -0.66000
O847        O  0.53238713  0.08286615  0.78782201    -0.85300
C848        C  0.99751990  0.48564085  0.67324118     0.87000
C849        C  0.48914987  0.40496924  0.73417615     1.08500
H850        H  0.53518482  0.03536473  0.72174618     0.40300
O851        O  0.52712008  0.02501044  0.74625371    -1.07900
O852        O  0.98065402  0.02203380  0.80666422    -0.64600
Ni853      Ni  0.98005714  0.02462071  0.75337034     1.26300
O854        O  0.51877937  0.47668242  0.69510246    -0.64800
O855        O  0.99029403  0.07444896  0.74843511    -0.77100
C856        C  0.90724430  0.00468043  0.74501177     0.86300
O857        O  0.93291704  0.02373196  0.75934996    -0.64300
Ni858      Ni  0.55780396  0.04911245  0.78056004     1.27400
Ni859      Ni  0.52017977  0.47454370  0.74832187     1.26100
H860        H  0.96530582  0.46439960  0.78040945     0.40900
O861        O  0.81079923  0.01577489  0.00009852    -0.72600
O862        O  0.72331760  0.03635848  0.99744323    -0.72600
O863        O  0.76009592  0.03295154  0.54786218    -0.72700
O864        O  0.76847953  0.02751375  0.94600157    -0.72700
O865        O  0.74616945  0.47488064  0.94886075    -0.72700
O866        O  0.73555951  0.45525645  0.55665670    -0.72600
O867        O  0.68714003  0.45667648  0.50588332    -0.72600
O868        O  0.78073737  0.45151939  0.50186413    -0.72700
Ni869      Ni  0.76792530  0.02803545  0.99852896     1.25400
Ni870      Ni  0.73336510  0.45231210  0.50437443     1.25400
C871        C  0.81214128  0.98401611  0.00190570     0.89600
C872        C  0.68595033  0.01528371  0.50337643     0.89500
C873        C  0.74827683  0.00471687  0.56888652     0.89500
C874        C  0.75545243  0.99959415  0.93088493     0.89700
O875        O  0.80678454  0.02567087  0.74502190    -0.72600
O876        O  0.71556005  0.03769375  0.74985740    -0.72600
O877        O  0.76298480  0.03079274  0.79964544    -0.72700
O878        O  0.75983450  0.03317860  0.69491396    -0.72700
O879        O  0.73626248  0.46413985  0.70327663    -0.72700
O880        O  0.74233881  0.47169240  0.80673955    -0.72600
O881        O  0.69377387  0.47450695  0.75673364    -0.72600
O882        O  0.78475323  0.46187219  0.75301399    -0.72700
Ni883      Ni  0.76203365  0.03393379  0.74715896     1.25400
Ni884      Ni  0.73846070  0.46598506  0.75535459     1.25400
C885        C  0.81072329  0.48857429  0.74720701     0.89600
C886        C  0.69028482  0.50554890  0.75236988     0.89500
C887        C  0.75461023  0.50156016  0.81829164     0.89500
C888        C  0.74674355  0.49158043  0.68083490     0.89700
C889        C  0.75719337  0.50391173  0.85715039    -0.11500
C890        C  0.75540008  0.00067112  0.89152130    -0.13000
C891        C  0.74560725  0.48840088  0.64196869    -0.11500
C892        C  0.74911190  0.00557025  0.60798812    -0.13000
C893        C  0.65608812  0.51184050  0.75517324    -0.14600
C894        C  0.62661861  0.48695614  0.75283238    -0.29800
H895        H  0.65298263  0.04174189  0.76066972     0.14400
H896        H  0.62718287  0.46091544  0.74719638     0.15000
C897        C  0.87379628  0.01281845  0.74800936    -0.14600
C898        C  0.84447689  0.98858305  0.74311360    -0.29800
H899        H  0.87309201  0.03824741  0.75561400     0.14400
H900        H  0.84697392  0.45692099  0.74214285     0.15000
C901        C  0.63406374  0.51612328  0.50722459    -0.14600
C902        C  0.65222306  0.02277936  0.50588633    -0.29800
H903        H  0.63293236  0.96886580  0.99262896     0.14400
H904        H  0.62434260  0.46272639  0.50106088     0.15200
C905        C  0.87523184  0.99956900  0.00776179    -0.14600
C906        C  0.84582610  0.97596625  0.00127844    -0.29800
H907        H  0.86609006  0.03489379  0.50243254     0.14400
H908        H  0.85025234  0.45295262  0.99329191     0.15000
C909        C  0.01276732  0.49041527  0.88859914    -0.14600
C910        C  0.98853674  0.99834012  0.86653854    -0.29800
H911        H  0.03580947  0.99062744  0.88370495     0.14400
H912        H  0.46497576  0.49747444  0.87177371     0.15000
C913        C  0.98776059  0.01137589  0.61240661    -0.14600
C914        C  0.01038389  0.50161272  0.63611700    -0.29800
H915        H  0.46090609  0.00856513  0.61994754     0.14400
H916        H  0.03718804  0.50420242  0.62855589     0.15000
C917        C  0.01226429  0.35315946  0.74693638    -0.14600
C918        C  0.48761746  0.36762542  0.73425905    -0.29800
H919        H  0.53617375  0.36948062  0.75603754     0.14400
H920        H  0.96486663  0.35118376  0.72301895     0.15000
C921        C  0.98837485  0.14585934  0.75392824    -0.14600
C922        C  0.01279996  0.13148543  0.76751333    -0.29800
H923        H  0.96473929  0.12950470  0.74435154     0.14400
H924        H  0.53528833  0.14800281  0.77911310     0.15000
C925        C  0.00102636  0.24404008  0.89214555    -0.11500
C926        C  0.00001553  0.24401478  0.85920919    -0.13000
C927        C  0.00074381  0.25535548  0.64098220    -0.11500
C928        C  0.00131940  0.25632693  0.60793865    -0.13000
C929        C  0.48772800  0.34242616  0.98997936    -0.14600
C930        C  0.51188527  0.37138690  0.99619874    -0.29800
H931        H  0.96164221  0.34364125  0.98446346     0.14400
H932        H  0.53736269  0.36969799  0.00402764     0.15000
C933        C  0.02191798  0.16177388  0.51074402    -0.14600
C934        C  0.99669207  0.13374460  0.50409117    -0.29800
H935        H  0.04725444  0.15910276  0.51784918     0.14400
H936        H  0.47472190  0.12684323  0.00377974     0.15000
O937        O  0.95411649  0.78514746  0.49463938    -0.72600
O938        O  0.98731202  0.69159613  0.00625757    -0.72600
O939        O  0.97637102  0.73769681  0.05156360    -0.72700
O940        O  0.96164410  0.73798095  0.44882502    -0.72700
O941        O  0.51799525  0.76406281  0.44216988    -0.72700
O942        O  0.53284164  0.76372762  0.04873729    -0.72600
O943        O  0.54368161  0.71796512  0.00304137    -0.72600
O944        O  0.51048295  0.81110437  0.48836660    -0.72700
Ni945      Ni  0.97518073  0.73472821  0.99954987     1.25400
Ni946      Ni  0.52233652  0.76784693  0.49395588     1.25400
C947        C  0.47918764  0.81273418  0.48993522     0.89600
C948        C  0.51875386  0.69027479  0.00683157     0.89500
C949        C  0.00424387  0.75136197  0.06718224     0.89500
C950        C  0.98913552  0.74987195  0.42859373     0.89700
O951        O  0.52597767  0.75647368  0.19690026    -0.72600
O952        O  0.51862781  0.75081086  0.30178369    -0.72600
O953        O  0.51696883  0.70410016  0.25196594    -0.72700
O954        O  0.52691550  0.80303553  0.24707751    -0.72700
O955        O  0.96995943  0.79279261  0.24407633    -0.72700
O956        O  0.95998024  0.69433540  0.24932974    -0.72600
O957        O  0.96156340  0.74103369  0.29958988    -0.72600
O958        O  0.96888908  0.74634438  0.19431384    -0.72700
Ni959      Ni  0.52415698  0.75392454  0.24949979     1.25400
Ni960      Ni  0.96307307  0.74327905  0.24678793     1.25400
C961        C  0.99867382  0.75207790  0.17848167     0.89600
C962        C  0.98906215  0.74548320  0.31781391     0.89500
C963        C  0.98682160  0.68295261  0.25120856     0.89500
C964        C  0.99988503  0.81415244  0.24483367     0.89700
O965        O  0.90348421  0.97475737  0.48011403    -0.79100
O966        O  0.56350310  0.98481256  0.49262120    -0.63800
O967        O  0.97799876  0.97019755  0.01413491    -1.10400
C968        C  0.01041196  0.59306204  0.00888005     1.07800
O969        O  0.60166586  0.53497293  0.01024310    -0.77000
O970        O  0.55133279  0.53162470  0.06190079    -0.64500
Ni971      Ni  0.93726688  0.94869236  0.47779830     1.34900
C972        C  0.52071155  0.52202489  0.07544196     0.86600
O973        O  0.50930314  0.93263540  0.50962537    -0.77500
O974        O  0.96500968  0.91627652  0.47377733    -0.87800
C975        C  0.59893627  0.00248671  0.00153116     0.86100
O976        O  0.95868589  0.97681792  0.43448560    -0.66000
O977        O  0.53747888  0.58904564  0.02404030    -0.85300
C978        C  0.99041277  0.98330684  0.42492094     0.87000
C979        C  0.48942166  0.90993609  0.49252603     1.08500
H980        H  0.53343805  0.54204393  0.46684238     0.40300
O981        O  0.52653979  0.53394184  0.49221312    -1.07900
O982        O  0.99444350  0.52334355  0.05650011    -0.64600
Ni983      Ni  0.98597328  0.52070560  0.00428996     1.26300
O984        O  0.51315992  0.97870475  0.44732062    -0.64800
O985        O  0.98930951  0.56872763  0.99519965    -0.77100
C986        C  0.90511617  0.49677330  0.49435961     0.86300
O987        O  0.93874062  0.51423417  0.01688343    -0.64300
Ni988      Ni  0.56654495  0.55868250  0.01638861     1.27400
Ni989      Ni  0.51600906  0.98123468  0.50000153     1.26100
H990        H  0.97240317  0.96151228  0.03961528     0.40900
O991        O  0.89152657  0.96691238  0.23722454    -0.79100
O992        O  0.55286955  0.97740493  0.23182059    -0.63800
O993        O  0.95876221  0.97045809  0.25631725    -1.10400
C994        C  0.00695932  0.59327251  0.26185333     1.07800
O995        O  0.58341715  0.51678439  0.26882088    -0.77000
O996        O  0.53165242  0.52033404  0.31517408    -0.64500
Ni997      Ni  0.92476908  0.94190648  0.22801341     1.34900
C998        C  0.50038269  0.51557728  0.32544623     0.86600
O999        O  0.49844991  0.92338268  0.24935294    -0.77500
O1000       O  0.95179998  0.91076163  0.21660279    -0.87800
C1001       C  0.57829061  0.99634337  0.24693284     0.86100
O1002       O  0.94210181  0.97207608  0.18494055    -0.66000
O1003       O  0.53140560  0.58376079  0.27763543    -0.85300
C1004       C  0.97285355  0.97946619  0.17188342     0.87000
C1005       C  0.47609559  0.90189722  0.23299569     1.08500
H1006       H  0.52719266  0.53510276  0.21526720     0.40300
O1007       O  0.52096183  0.52423453  0.23999204    -1.07900
O1008       O  0.97769670  0.52136951  0.30376426    -0.64600
Ni1009     Ni  0.97404174  0.52231320  0.25109130     1.26300
O1010       O  0.49792009  0.97411209  0.19068868    -0.64800
O1011       O  0.98305908  0.57232717  0.24632870    -0.77100
C1012       C  0.89982320  0.49722930  0.25167979     0.86300
O1013       O  0.92650819  0.51964768  0.26026601    -0.64300
Ni1014     Ni  0.55440720  0.54780882  0.27213677     1.27400
Ni1015     Ni  0.50555679  0.97309879  0.24335886     1.26100
H1016       H  0.95407805  0.96204244  0.28197273     0.40900
O1017       O  0.79961772  0.50948312  0.49526548    -0.72600
O1018       O  0.70503216  0.51470446  0.49919239    -0.72600
O1019       O  0.77121281  0.52968736  0.04911780    -0.72700
O1020       O  0.75081317  0.51203714  0.44514545    -0.72700
O1021       O  0.72873773  0.97329963  0.45184273    -0.72700
O1022       O  0.73884394  0.96746835  0.05505070    -0.72600
O1023       O  0.69698895  0.97948439  0.00127712    -0.72600
O1024       O  0.78460752  0.95890928  0.00343327    -0.72700
Ni1025     Ni  0.75302924  0.51446885  0.49703163     1.25400
Ni1026     Ni  0.73975010  0.96707694  0.00263336     1.25400
C1027       C  0.80557609  0.47933548  0.49748513     0.89600
C1028       C  0.70090413  0.51631339  0.99809779     0.89500
C1029       C  0.75687115  0.50111922  0.06861794     0.89500
C1030       C  0.74088429  0.48298504  0.43137939     0.89700
O1031       O  0.79930404  0.51543152  0.25118312    -0.72600
O1032       O  0.70951369  0.53001712  0.24799462    -0.72600
O1033       O  0.75155231  0.51867248  0.30201430    -0.72700
O1034       O  0.75747685  0.52618979  0.19657686    -0.72700
O1035       O  0.72514606  0.96730360  0.20161388    -0.72700
O1036       O  0.72135775  0.96944160  0.30634667    -0.72600
O1037       O  0.67829281  0.97639189  0.25125068    -0.72600
O1038       O  0.76725635  0.95985187  0.25648144    -0.72700
Ni1039     Ni  0.75521039  0.52464789  0.24932632     1.25400
Ni1040     Ni  0.72203969  0.96621801  0.25419616     1.25400
C1041       C  0.79413693  0.98562885  0.25351122     0.89600
C1042       C  0.67575274  0.00774337  0.24761219     0.89500
C1043       C  0.73376064  0.99839314  0.31985538     0.89500
C1044       C  0.73860785  0.99562714  0.18123668     0.89700
C1045       C  0.73471892  0.99918105  0.35900459    -0.11500
C1046       C  0.73925859  0.48331024  0.39219804    -0.13000
C1047       C  0.74256345  0.99479692  0.14223655    -0.11500
C1048       C  0.75410779  0.50094437  0.10787213    -0.13000
C1049       C  0.64150536  0.01439347  0.24766387    -0.14600
C1050       C  0.61235831  0.98954009  0.24314684    -0.29800
H1051       H  0.64785325  0.53620508  0.25649935     0.14400
H1052       H  0.61354395  0.96394485  0.23655021     0.15000
C1053       C  0.86575027  0.50361815  0.25673785    -0.14600
C1054       C  0.83676018  0.47828872  0.25292370    -0.29800
H1055       H  0.86443806  0.52947815  0.26221479     0.14400
H1056       H  0.82827219  0.95133549  0.25162689     0.15000
C1057       C  0.63264180  0.99522081  0.99733565    -0.14600
C1058       C  0.66736856  0.52448648  0.99854532    -0.29800
H1059       H  0.65361813  0.53996689  0.51109431     0.14400
H1060       H  0.66224007  0.04627795  0.00334840     0.15200
C1061       C  0.86978287  0.50168644  0.49666648    -0.14600
C1062       C  0.84119657  0.47546966  0.49439922    -0.29800
H1063       H  0.87952744  0.52800871  0.01220458     0.14400
H1064       H  0.83816434  0.95753720  0.49066607     0.15000
C1065       C  0.00186509  0.99620171  0.38645274    -0.14600
C1066       C  0.98931867  0.50313314  0.36396394    -0.29800
H1067       H  0.03812925  0.50011097  0.38154423     0.14400
H1068       H  0.45374868  0.00181418  0.36941325     0.15000
C1069       C  0.01613029  0.50908725  0.11483092    -0.14600
C1070       C  0.97879364  0.99386188  0.13304716    -0.29800
H1071       H  0.53907198  0.50858171  0.12993867     0.14400
H1072       H  0.95634826  0.99498608  0.11733807     0.15000
C1073       C  0.00304182  0.85211370  0.24364478    -0.14600
C1074       C  0.47689424  0.86514692  0.23236774    -0.29800
H1075       H  0.52663761  0.86926982  0.25220934     0.14400
H1076       H  0.95416855  0.84769810  0.22234369     0.15000
C1077       C  0.98266238  0.64485061  0.25186266    -0.14600
C1078       C  0.00823405  0.63064392  0.26198945    -0.29800
H1079       H  0.95825189  0.62833312  0.24423415     0.14400
H1080       H  0.53190569  0.64742855  0.27108697     0.15000
C1081       C  0.98756837  0.74710671  0.38977403    -0.11500
C1082       C  0.98712485  0.74541334  0.35703423    -0.13000
C1083       C  0.00148052  0.75304512  0.13918810    -0.11500
C1084       C  0.00328574  0.75274406  0.10627596    -0.13000
C1085       C  0.47187651  0.84693959  0.48682081    -0.14600
C1086       C  0.49615673  0.87560939  0.49352057    -0.29800
H1087       H  0.94589539  0.84834720  0.48089780     0.14400
H1088       H  0.52140498  0.87359858  0.50187477     0.15000
C1089       C  0.02659805  0.65638540  0.01152032    -0.14600
C1090       C  0.00243844  0.62682529  0.00752436    -0.29800
H1091       H  0.05301879  0.65589503  0.01639725     0.14400
H1092       H  0.46534391  0.63312754  0.49244290     0.15000
O1093       O  0.96714713  0.77983898  0.99258974    -0.72600
O1094       O  0.97396954  0.69649959  0.50653088    -0.72600
O1095       O  0.96625870  0.74322422  0.55269670    -0.72700
O1096       O  0.97787054  0.73368902  0.94735575    -0.72700
O1097       O  0.53414902  0.76047087  0.94408259    -0.72700
O1098       O  0.52258404  0.76945020  0.54611635    -0.72600
O1099       O  0.53030122  0.72279220  0.50044539    -0.72600
O1100       O  0.52352404  0.80618394  0.99041044    -0.72700
Ni1101     Ni  0.96195655  0.73979931  0.50093016     1.25400
Ni1102     Ni  0.53559013  0.76304344  0.99637420     1.25400
C1103       C  0.49212289  0.80752853  0.98994820     0.89600
C1104       C  0.50538899  0.69517024  0.50539005     0.89500
C1105       C  0.99519444  0.75686270  0.56639198     0.89500
C1106       C  0.00615897  0.74658574  0.92865001     0.89700
O1107       O  0.52889122  0.75861647  0.69279811    -0.72600
O1108       O  0.53194831  0.75248748  0.79784276    -0.72600
O1109       O  0.52521821  0.70606756  0.74696618    -0.72700
O1110       O  0.53534853  0.80487130  0.74412632    -0.72700
O1111       O  0.97821096  0.79471499  0.74759717    -0.72700
O1112       O  0.96811225  0.69614202  0.75034988    -0.72600
O1113       O  0.97477178  0.74244743  0.80186753    -0.72600
O1114       O  0.97171625  0.74857608  0.69679093    -0.72700
Ni1115     Ni  0.53239043  0.75583884  0.74523540     1.25400
Ni1116     Ni  0.97118342  0.74510066  0.74935483     1.25400
C1117       C  0.99985430  0.75463531  0.67767382     0.89600
C1118       C  0.00388002  0.74674420  0.81702828     0.89500
C1119       C  0.99500240  0.68484549  0.74910058     0.89500
C1120       C  0.00836359  0.81605091  0.74540952     0.89700
O1121       O  0.91233236  0.96726555  0.98723806    -0.79100
O1122       O  0.57270475  0.97924464  0.99398660    -0.63800
O1123       O  0.96841495  0.97795030  0.50826862    -1.10400
C1124       C  0.99900341  0.59870174  0.50512655     1.07800
O1125       O  0.59175654  0.54376618  0.52167286    -0.77000
O1126       O  0.53406451  0.53590071  0.56558061    -0.64500
Ni1127     Ni  0.94617218  0.94112157  0.98420318     1.34900
C1128       C  0.50204795  0.52742368  0.57426076     0.86600
O1129       O  0.51983383  0.92650155  0.01395432    -0.77500
O1130       O  0.97433565  0.90908046  0.97971905    -0.87800
C1131       C  0.58893351  0.00583232  0.50515500     0.86100
O1132       O  0.96631259  0.96902849  0.94009478    -0.66000
O1133       O  0.52290470  0.59414495  0.52577038    -0.85300
C1134       C  0.99777229  0.97518131  0.92969715     0.87000
C1135       C  0.49969105  0.90344237  0.99740669     1.08500
H1136       H  0.53682610  0.53383331  0.96470031     0.40300
O1137       O  0.53317941  0.52638647  0.99068179    -1.07900
O1138       O  0.97947553  0.53145952  0.55144834    -0.64600
Ni1139     Ni  0.97803216  0.52705954  0.49914030     1.26300
O1140       O  0.52083461  0.97049082  0.95148686    -0.64800
O1141       O  0.98135429  0.57488907  0.48760433    -0.77100
C1142       C  0.91364727  0.49463145  0.00219808     0.86300
O1143       O  0.92955192  0.52014354  0.50541891    -0.64300
Ni1144     Ni  0.55458999  0.56555415  0.52288654     1.27400
Ni1145     Ni  0.52535461  0.97482697  0.00351362     1.26100
H1146       H  0.96178717  0.96970818  0.53366337     0.40900
O1147       O  0.90888499  0.97871328  0.72821195    -0.79100
O1148       O  0.56618261  0.97688147  0.74332115    -0.63800
O1149       O  0.97145441  0.97458614  0.75753432    -1.10400
C1150       C  0.01358591  0.59448628  0.76335896     1.07800
O1151       O  0.59146952  0.52105298  0.77265593    -0.77000
O1152       O  0.53587520  0.51927533  0.81728823    -0.64500
Ni1153     Ni  0.94005635  0.95025033  0.72390008     1.34900
C1154       C  0.50422438  0.51458432  0.82619331     0.86600
O1155       O  0.50888375  0.92516602  0.75406168    -0.77500
O1156       O  0.96491944  0.91597270  0.71691483    -0.87800
C1157       C  0.59175137  0.99634730  0.75763602     0.86100
O1158       O  0.96407492  0.98068162  0.68340603    -0.66000
O1159       O  0.53491047  0.58355773  0.78317153    -0.85300
C1160       C  0.99579397  0.98595269  0.67455382     0.87000
C1161       C  0.48714676  0.90522273  0.73547430     1.08500
H1162       H  0.53670935  0.53437484  0.71870123     0.40300
O1163       O  0.52882062  0.52454591  0.74341423    -1.07900
O1164       O  0.98280569  0.52252755  0.80386084    -0.64600
Ni1165     Ni  0.98168761  0.52426449  0.75057525     1.26300
O1166       O  0.51735685  0.97800759  0.69668708    -0.64800
O1167       O  0.99191571  0.57431558  0.74487489    -0.77100
C1168       C  0.90831979  0.50239886  0.74368343     0.86300
O1169       O  0.93420190  0.52297958  0.75633522    -0.64300
Ni1170     Ni  0.56007499  0.54941283  0.77670957     1.27400
Ni1171     Ni  0.51868019  0.97509882  0.74989143     1.26100
H1172       H  0.96369665  0.96445766  0.78217904     0.40900
O1173       O  0.81584615  0.51980009  0.99739671    -0.72600
O1174       O  0.72853906  0.54129588  0.99608775    -0.72600
O1175       O  0.75388548  0.51331086  0.54937861    -0.72700
O1176       O  0.77282349  0.53173686  0.94406726    -0.72700
O1177       O  0.74202457  0.97063148  0.95007121    -0.72700
O1178       O  0.73521258  0.97570881  0.55587981    -0.72600
O1179       O  0.68791280  0.98368853  0.50644416    -0.72600
O1180       O  0.77647472  0.96558718  0.50097676    -0.72700
Ni1181     Ni  0.77315270  0.53265416  0.99647850     1.25400
Ni1182     Ni  0.73123546  0.97252250  0.50410261     1.25400
C1183       C  0.81678610  0.48787278  0.99960739     0.89600
C1184       C  0.68052472  0.48634764  0.50282740     0.89500
C1185       C  0.74493409  0.48464370  0.57011225     0.89500
C1186       C  0.75942440  0.50371485  0.92932662     0.89700
O1187       O  0.80694052  0.51942163  0.74251777    -0.72600
O1188       O  0.71636576  0.53199655  0.74624669    -0.72600
O1189       O  0.76467866  0.52921869  0.79601747    -0.72700
O1190       O  0.75856660  0.52163786  0.69226145    -0.72700
O1191       O  0.73745731  0.97549543  0.69979352    -0.72700
O1192       O  0.74086238  0.97307752  0.80474664    -0.72600
O1193       O  0.69349457  0.98000495  0.75461954    -0.72600
O1194       O  0.78419520  0.96804015  0.74949974    -0.72700
Ni1195     Ni  0.76237311  0.52761888  0.74380314     1.25400
Ni1196     Ni  0.73818706  0.97211053  0.75238963     1.25400
C1197       C  0.81027698  0.99465823  0.74621328     0.89600
C1198       C  0.68958950  0.01080714  0.75315438     0.89500
C1199       C  0.75262934  0.00157657  0.81929735     0.89500
C1200       C  0.74856991  0.00472692  0.68024229     0.89700
C1201       C  0.75427303  0.00090933  0.85855630    -0.11500
C1202       C  0.75880753  0.50454711  0.89000021    -0.13000
C1203       C  0.74883319  0.00552664  0.64094725    -0.11500
C1204       C  0.74517553  0.48585105  0.60931384    -0.13000
C1205       C  0.65482756  0.01581778  0.75611704    -0.14600
C1206       C  0.62596330  0.99009068  0.75318353    -0.29800
H1207       H  0.65525742  0.53833959  0.75846673     0.14400
H1208       H  0.62752833  0.96464874  0.74646040     0.15000
C1209       C  0.87423873  0.50902462  0.74740619    -0.14600
C1210       C  0.84532310  0.48320926  0.74519332    -0.29800
H1211       H  0.87279780  0.53490091  0.75266440     0.14400
H1212       H  0.84535809  0.96258981  0.73759478     0.15000
C1213       C  0.62266060  0.99826461  0.50273425    -0.14600
C1214       C  0.64383782  0.48704651  0.50316314    -0.29800
H1215       H  0.63857385  0.47390806  0.98952697     0.14400
H1216       H  0.65177261  0.04931825  0.50949629     0.15200
C1217       C  0.87990114  0.50242161  0.00479368    -0.14600
C1218       C  0.85017721  0.47917365  0.99875019    -0.29800
H1219       H  0.86723843  0.52724254  0.50174398     0.14400
H1220       H  0.84642642  0.95004764  0.99521690     0.15000
C1221       C  0.00902718  0.98810533  0.89132088    -0.14600
C1222       C  0.99171743  0.49999766  0.86400262    -0.29800
H1223       H  0.03956621  0.49337307  0.88068352     0.14400
H1224       H  0.46180938  0.99618206  0.87403945     0.15000
C1225       C  0.98994233  0.51268194  0.61187810    -0.14600
C1226       C  0.00841627  0.00117035  0.63706746    -0.29800
H1227       H  0.46299593  0.50953843  0.61927886     0.14400
H1228       H  0.03521823  0.00373280  0.62953193     0.15000
C1229       C  0.01214175  0.85408744  0.74487466    -0.14600
C1230       C  0.48620847  0.86795169  0.73494406    -0.29800
H1231       H  0.53653606  0.87083960  0.75217063     0.14400
H1232       H  0.96276317  0.85107957  0.72555091     0.15000
C1233       C  0.99078526  0.64671582  0.74987264    -0.14600
C1234       C  0.01541090  0.63211544  0.76250185    -0.29800
H1235       H  0.96676417  0.63038043  0.74109875     0.14400
H1236       H  0.53837556  0.64867216  0.77316800     0.15000
C1237       C  0.00620802  0.74578271  0.88938996    -0.11500
C1238       C  0.00519041  0.74565791  0.85640730    -0.13000
C1239       C  0.99865432  0.75669302  0.63838060    -0.11500
C1240       C  0.99710081  0.75744312  0.60545068    -0.13000
C1241       C  0.48439759  0.84144373  0.98724592    -0.14600
C1242       C  0.50716433  0.86951781  0.99773376    -0.29800
H1243       H  0.95900152  0.84290076  0.97884949     0.14400
H1244       H  0.53166714  0.86727565  0.00827503     0.15000
C1245       C  0.01340594  0.66143047  0.50974672    -0.14600
C1246       C  0.99039189  0.63216733  0.50247379    -0.29800
H1247       H  0.03931049  0.66090855  0.51715533     0.14400
H1248       H  0.47648387  0.62764827  0.00073028     0.15000
loop_ 
_geom_bond_atom_site_label_1 
_geom_bond_atom_site_label_2 
_geom_bond_distance 
_geom_bond_site_symmetry_2 
_ccdc_geom_bond_type 
O1         Ni165   1.907       .  S
O1          C635   1.278       .  A
O2           Ni9   1.911       .  S
O2          C636   1.281       .  A
O3           Ni9   1.922       .  S
O3           C13   1.281       .  A
O4         Ni165   1.917       .  S
O4           C14   1.279       .  A
O5          Ni10   1.920       .  S
O5          C638   1.280       .  A
O6         Ni166   1.915   1_554  S
O6          C637   1.279       .  A
O7         Ni166   1.916   1_554  S
O7           C12   1.280       .  A
O8          Ni10   1.920       .  S
O8           C11   1.283   1_455  A
Ni9         O157   1.914   1_554  S
Ni9         O160   1.919   1_554  S
Ni9        Ni790   2.392   1_554  S
Ni10        O162   1.914       .  S
Ni10        O163   1.920       .  S
Ni10       Ni789   2.393   1_455  S
C11         O625   1.278       .  A
C11         C149   1.467       .  S
C12         O626   1.281   1_455  A
C12         C777   1.471       .  S
C13         O630   1.279       .  A
C13         C148   1.436       .  S
C14         O629   1.280       .  A
C14         C145   1.435       .  S
O15         Ni23   1.924       .  S
O15         C649   1.281       .  A
O16         Ni23   1.918       .  S
O16         C650   1.280       .  A
O17         Ni23   1.919       .  S
O17         C651   1.281       .  A
O18         Ni23   1.919       .  S
O18         C652   1.280       .  A
O19         Ni24   1.927       .  S
O19          C28   1.284       .  A
O20         Ni24   1.929       .  S
O20          C27   1.284       .  A
O21         Ni24   1.918       .  S
O21          C26   1.280       .  A
O22         Ni24   1.913       .  S
O22          C25   1.278       .  A
Ni23       Ni648   2.391   1_455  S
Ni24       Ni647   2.391       .  S
C25         O639   1.281       .  A
C25         C147   1.436       .  S
C26         O640   1.280       .  A
C26         C146   1.435       .  S
C27         O641   1.281       .  A
C27         C141   1.480       .  S
C28         O642   1.280       .  A
C28         C137   1.480       .  S
O29         Ni35   1.944       .  S
O29         C362   1.275       .  A
O30         Ni53   1.923       .  S
O30         C195   1.273       .  A
O31          H54   0.966       .  S
O31        Ni191   1.920   1_554  S
O31        Ni833   1.904       .  S
O31        Ni359   1.900       .  S
C32          O49   1.261   1_554  A
C32         O665   1.271       .  A
C32         C154   1.468       .  S
O33         Ni52   1.924       .  S
O33         C351   1.271       .  A
O34         Ni52   1.901       .  S
O34          C36   1.270       .  A
Ni35         O38   1.937       .  S
Ni35         O40   1.907       .  S
Ni35        O187   1.918       .  S
C36         O670   1.282   1_455  A
C36         C757   1.476       .  S
O37         Ni53   1.897       .  S
O37          C43   1.265       .  A
O38         C667   1.275       .  A
C39         O186   1.265       .  A
C39         O345   1.271   1_556  A
C39         C121   1.472       .  S
O40          C42   1.274       .  A
O41         Ni52   1.933       .  S
O41         C656   1.271       .  A
C42         O672   1.277       .  A
C42         C129   1.473       .  S
C43         O662   1.275   1_455  A
C43         C150   1.472       .  S
H44          O45   0.966       .  S
O45        Ni365   1.912   1_545  S
O45        Ni827   1.907   1_455  S
O45        Ni208   1.921       .  S
O46         Ni47   1.950       .  S
O46         C660   1.282       .  A
Ni47         O51   1.901       .  S
Ni47         O49   1.892   1_554  S
Ni47        O343   1.902   1_545  S
Ni47        O825   1.910   1_554  S
O48         Ni53   1.942       .  S
O48         C666   1.277   1_455  A
C50         O341   1.272   1_545  A
C50         O207   1.266       .  A
C50         C125   1.474       .  S
O51         C206   1.267   1_545  A
Ni52        O201   1.924   1_554  S
Ni53        O811   1.919   1_455  S
Ni53        O357   1.916       .  S
O55         Ni61   1.903       .  S
O55         C388   1.268       .  A
O56         Ni79   1.901       .  S
O56          C65   1.266       .  A
O57          H80   0.966       .  S
O57         Ni61   1.922       .  S
O57        Ni703   1.910       .  S
O57        Ni385   1.943       .  S
C58          O75   1.268       .  A
C58         O691   1.276       .  A
C58         C142   1.483       .  S
O59         Ni78   1.927       .  S
O59         C377   1.274   1_545  A
O60         Ni78   1.910       .  S
O60          C62   1.271   1_455  A
Ni61         O64   1.929       .  S
Ni61         O66   1.896       .  S
C62         O696   1.273       .  A
C62         C754   1.477       .  S
O63         Ni79   1.912       .  S
O63          C69   1.265   1_455  A
O64         C693   1.266       .  A
C65         O371   1.273       .  A
C65         C114   1.474       .  S
O66          C68   1.270       .  A
O67         Ni78   1.942       .  S
O67         C682   1.276   1_455  A
C68         O698   1.284       .  A
C68         C134   1.478       .  S
C69         O688   1.266       .  A
C69         C138   1.481       .  S
H70          O71   0.966       .  S
O71         Ni78   1.916       .  S
O71        Ni391   1.916   1_545  S
O71        Ni697   1.901   1_455  S
O72         Ni73   1.938       .  S
O72         C686   1.273       .  A
Ni73         O77   1.898       .  S
Ni73         O75   1.908       .  S
Ni73        O369   1.935   1_545  S
Ni73        O695   1.901       .  S
O74         Ni79   1.957       .  S
O74         C692   1.284   1_455  A
C76          O77   1.263   1_565  A
C76         O367   1.270       .  A
C76         C117   1.471   1_565  S
Ni79        O681   1.910   1_455  S
Ni79        O383   1.909       .  S
O81         Ni89   1.915       .  S
O81          C91   1.281   1_545  A
O82         Ni89   1.913       .  S
O82         C248   1.279       .  A
O83        Ni245   1.921   1_554  S
O83          C93   1.280   1_545  A
O84         Ni89   1.923       .  S
O84          C94   1.281       .  A
O85        Ni246   1.923       .  S
O85         C406   1.281       .  A
O86         Ni90   1.922       .  S
O86         C405   1.281       .  A
O87         Ni90   1.911       .  S
O87         C404   1.281   1_554  A
O88         Ni90   1.917       .  S
O88         C559   1.280   1_554  A
Ni89        O239   1.919       .  S
Ni89       Ni558   2.392   1_545  S
Ni90        O241   1.917   1_554  S
Ni90       Ni557   2.392   1_554  S
C91         O556   1.281       .  A
C91         C126   1.473       .  S
C92         O238   1.279       .  A
C92         O399   1.282   1_546  A
C92         C122   1.470       .  S
C93         O398   1.280       .  A
C93         C112   1.439       .  S
C94         O397   1.279   1_545  A
C94         C110   1.437       .  S
O95        Ni103   1.916       .  S
O95         C417   1.282   1_545  A
O96        Ni103   1.920       .  S
O96         C418   1.282       .  A
O97        Ni103   1.914       .  S
O97         C419   1.278   1_545  A
O98        Ni103   1.918       .  S
O98         C420   1.279   1_545  A
O99        Ni104   1.915       .  S
O99         C108   1.279       .  A
O100       Ni104   1.917       .  S
O100        C107   1.279       .  A
O101       Ni104   1.921       .  S
O101        C106   1.282       .  A
O102       Ni104   1.916       .  S
O102        C105   1.281       .  A
Ni103      Ni416   2.393   1_545  S
Ni104      Ni415   2.393       .  S
C105        O407   1.279       .  A
C105        C430   1.467       .  S
C106        O408   1.279       .  A
C106        C113   1.470       .  S
C107        O409   1.281       .  A
C107        C109   1.436       .  S
C108        O410   1.282       .  A
C108        C111   1.439       .  S
C109        C422   1.206       .  T
C110        C421   1.207   1_545  T
C111        C424   1.208       .  T
C112        C423   1.208       .  T
C113        C114   1.343       .  D
C113        H427   1.087       .  S
C114        H116   1.086       .  S
H115        C425   1.087       .  S
C117        C118   1.341   1_545  D
C117        H119   1.087       .  S
C118        C417   1.466       .  S
C118        H432   1.087       .  S
H120        C430   1.087       .  S
C121        C434   1.344       .  D
C121        H591   1.087       .  S
C122        C433   1.341   1_545  D
C122        H436   1.087   1_556  S
H123        C589   1.087       .  S
H124        C434   1.087   1_554  S
C125        C126   1.344   1_545  D
C125        H283   1.087       .  S
C126        H440   1.087       .  S
H127        C281   1.087   1_545  S
H128        C438   1.087       .  S
C129        C442   1.342       .  D
C129        H443   1.087       .  S
C130        C686   1.477       .  S
C130        C441   1.344   1_545  D
C130       H1068   1.087       .  S
H131        C441   1.087       .  S
H132       C1066   1.087       .  S
C133        C660   1.476       .  S
C133        C446   1.341   1_545  D
C133        H759   1.087       .  S
C134        C445   1.341       .  D
C134        H136   1.087       .  S
H135        C757   1.087       .  S
C137        C762   1.344       .  D
C137        H763   1.087       .  S
C138        C761   1.344   1_655  D
C138        H764   1.087       .  S
H139        C761   1.087       .  S
H140        C762   1.087       .  S
C141        C142   1.346       .  D
C141        H143   1.087       .  S
C142        H768   1.087       .  S
H144        C766   1.087       .  S
C145        C146   1.206       .  T
C147        C148   1.206       .  T
C149        C150   1.341   1_655  D
C149        H775   1.087       .  S
C150        H152   1.087       .  S
H151        C773   1.087       .  S
C153        C636   1.471       .  S
C153        C154   1.342       .  D
C153        H155   1.087       .  S
C154        H936   1.087       .  S
H156        C934   1.087       .  S
O157        C791   1.279       .  A
O158       Ni165   1.904       .  S
O158        C792   1.280       .  A
O159       Ni165   1.921       .  S
O159        C169   1.281       .  A
O160        C170   1.280       .  A
O161       Ni166   1.920       .  S
O161        C794   1.280       .  A
O162        C793   1.279       .  A
O163        C168   1.281       .  A
O164       Ni166   1.916       .  S
O164        C167   1.282   1_455  A
Ni165      Ni634   2.393       .  S
Ni166      Ni633   2.392   1_456  S
C167        O781   1.279       .  A
C167        C305   1.471       .  S
C168        O782   1.280   1_455  A
C168        C933   1.470       .  S
C169        O786   1.279       .  A
C169        C304   1.435       .  S
C170        O785   1.280       .  A
C170        C301   1.437       .  S
O171       Ni179   1.921       .  S
O171        C805   1.280       .  A
O172       Ni179   1.915       .  S
O172        C806   1.279   1_455  A
O173       Ni179   1.922       .  S
O173        C807   1.283   1_455  A
O174       Ni179   1.924       .  S
O174        C808   1.281       .  A
O175       Ni180   1.923       .  S
O175        C184   1.284       .  A
O176       Ni180   1.925       .  S
O176        C183   1.281       .  A
O177       Ni180   1.922       .  S
O177        C182   1.281       .  A
O178       Ni180   1.916       .  S
O178        C181   1.279       .  A
Ni179      Ni804   2.391   1_455  S
Ni180      Ni803   2.391       .  S
C181        O795   1.280       .  A
C181        C303   1.436       .  S
C182        O796   1.279       .  A
C182        C302   1.437       .  S
C183        O797   1.283       .  A
C183        C297   1.482       .  S
C184        O798   1.281       .  A
C184        C293   1.482       .  S
O185       Ni191   1.939       .  S
O185        C518   1.275   1_556  A
O186       Ni209   1.898   1_556  S
O187        H210   0.966       .  S
O187       Ni677   1.919       .  S
O187       Ni515   1.915       .  S
C188        O205   1.265       .  A
C188        O821   1.272       .  A
C188        C310   1.467       .  S
O189       Ni208   1.926       .  S
O189        C507   1.272       .  A
O190       Ni208   1.906       .  S
O190        C192   1.272   1_455  A
Ni191       O194   1.943       .  S
Ni191       O196   1.913       .  S
C192        O826   1.275       .  A
C192        C913   1.473       .  S
O193       Ni209   1.893       .  S
O193        C199   1.266   1_554  A
O194        C823   1.277       .  A
C195        O501   1.270       .  A
C195        C277   1.485       .  S
O196        C198   1.271       .  A
O197       Ni208   1.933       .  S
O197        C812   1.272       .  A
C198        O828   1.272       .  A
C198        C285   1.473       .  S
C199        O818   1.277   1_455  A
C199        C306   1.471       .  S
H200        O201   0.967       .  S
O201       Ni521   1.922   1_546  S
O201       Ni671   1.910   1_456  S
O202       Ni203   1.941       .  S
O202        C816   1.275       .  A
Ni203       O207   1.901       .  S
Ni203       O205   1.894       .  S
Ni203       O499   1.915   1_545  S
Ni203       O669   1.907       .  S
O204       Ni209   1.934   1_556  S
O204        C822   1.272       .  A
C206        O497   1.274   1_554  A
C206        C281   1.477       .  S
Ni209       O655   1.904   1_455  S
Ni209       O513   1.923   1_554  S
O211       Ni217   1.911       .  S
O211        C544   1.270       .  A
O212       Ni235   1.901       .  S
O212        C221   1.266       .  A
O213        H236   0.965       .  S
O213       Ni217   1.917       .  S
O213       Ni859   1.906       .  S
O213       Ni541   1.931       .  S
C214        O231   1.269       .  A
C214        O847   1.270       .  A
C214        C298   1.479       .  S
O215       Ni234   1.917       .  S
O215        C533   1.271   1_545  A
O216       Ni234   1.904       .  S
O216        C218   1.272       .  A
Ni217       O220   1.929       .  S
Ni217       O222   1.900       .  S
C218        O852   1.276   1_455  A
C218        C910   1.477   1_445  S
O219       Ni235   1.920       .  S
O219        C225   1.269   1_455  A
O220        C849   1.268       .  A
C221        O527   1.272       .  A
C221        C270   1.474       .  S
O222        C224   1.272       .  A
O223       Ni234   1.932       .  S
O223        C838   1.270       .  A
C224        O854   1.277       .  A
C224        C290   1.472       .  S
C225        O844   1.268       .  A
C225        C294   1.479       .  S
H226        O227   0.966       .  S
O227       Ni547   1.926   1_545  S
O227       Ni853   1.906   1_455  S
O227       Ni234   1.916       .  S
O228       Ni229   1.944       .  S
O228        C842   1.276       .  A
Ni229       O233   1.900       .  S
Ni229       O231   1.916       .  S
Ni229       O525   1.930   1_545  S
Ni229       O851   1.906       .  S
O230       Ni235   1.944       .  S
O230        C848   1.277   1_455  A
C232        O523   1.271   1_545  A
C232        O233   1.264       .  A
C232        C273   1.473       .  S
Ni235       O837   1.906   1_455  S
Ni235       O539   1.928       .  S
O237       Ni245   1.917   1_554  S
O237        C247   1.282   1_545  A
O238       Ni245   1.913       .  S
O239        C249   1.280       .  A
O240       Ni245   1.924       .  S
O240        C250   1.281   1_545  A
O241        C562   1.279       .  A
O242       Ni246   1.930       .  S
O242        C561   1.283       .  A
O243       Ni246   1.917       .  S
O243        C560   1.279       .  A
O244       Ni246   1.918       .  S
O244        C403   1.280       .  A
Ni245      Ni402   2.392   1_546  S
Ni246      Ni401   2.390       .  S
C247        O400   1.281       .  A
C247        C282   1.476       .  S
C248        O555   1.282   1_545  A
C248        C278   1.471       .  S
C249        O554   1.279   1_545  A
C249        C268   1.435       .  S
C250        O553   1.279       .  A
C250        C266   1.437   1_565  S
O251       Ni259   1.919       .  S
O251        C573   1.282   1_545  A
O252       Ni259   1.920       .  S
O252        C574   1.282       .  A
O253       Ni259   1.915       .  S
O253        C575   1.279       .  A
O254       Ni259   1.918       .  S
O254        C576   1.279       .  A
O255       Ni260   1.917       .  S
O255        C264   1.279       .  A
O256       Ni260   1.919       .  S
O256        C263   1.280       .  A
O257       Ni260   1.920       .  S
O257        C262   1.282       .  A
O258       Ni260   1.917       .  S
O258        C261   1.281       .  A
Ni259      Ni572   2.393   1_545  S
Ni260      Ni571   2.393       .  S
C261        O563   1.279       .  A
C261        C586   1.467       .  S
C262        O564   1.279       .  A
C262        C269   1.469       .  S
C263        O565   1.280       .  A
C263        C265   1.437       .  S
C264        O566   1.282       .  A
C264        C267   1.440       .  S
C265        C578   1.207       .  T
C266        C577   1.207       .  T
C267        C580   1.209       .  T
C268        C579   1.206       .  T
C269        C270   1.342       .  D
C269        H583   1.087       .  S
C270        H272   1.087       .  S
H271        C581   1.087       .  S
C273        C274   1.342   1_545  D
C273        H275   1.087       .  S
C274        C573   1.466       .  S
C274        H588   1.087       .  S
H276        C586   1.087       .  S
C277        C590   1.343       .  D
C277        H435   1.087       .  S
C278        C589   1.342   1_545  D
C278        H592   1.087       .  S
H279        C433   1.087       .  S
H280        C590   1.087       .  S
C281        C282   1.345       .  D
C282        H596   1.087   1_554  S
H284        C594   1.087       .  S
C285        C598   1.344       .  D
C285        H599   1.087       .  S
C286        C842   1.477   1_565  S
C286        C597   1.342       .  D
C286       H1224   1.087       .  S
H287        C597   1.087       .  S
H288       C1222   1.087       .  S
C289        C816   1.473       .  S
C289        C602   1.344       .  D
C289        H915   1.087       .  S
C290        C601   1.342       .  D
C290        H292   1.087       .  S
H291        C913   1.087       .  S
C293        C918   1.343       .  D
C293        H919   1.086       .  S
C294        C917   1.343   1_655  D
C294        H920   1.087       .  S
H295        C917   1.086       .  S
H296        C918   1.087       .  S
C297        C298   1.344       .  D
C297        H299   1.086       .  S
C298        H924   1.087       .  S
H300        C922   1.087       .  S
C301        C302   1.207       .  T
C303        C304   1.206       .  T
C305        C306   1.342   1_655  D
C305        H931   1.087       .  S
C306        H308   1.087   1_556  S
H307        C929   1.087       .  S
C309        C792   1.470       .  S
C309        C310   1.343       .  D
C309        H311   1.087       .  S
C310        H780   1.087       .  S
H312        C778   1.087   1_655  S
O313       Ni477   1.916       .  S
O313        C947   1.280       .  A
O314       Ni321   1.910   1_554  S
O314        C948   1.281       .  A
O315       Ni321   1.919   1_554  S
O315        C325   1.280       .  A
O316       Ni477   1.915       .  S
O316        C326   1.279       .  A
O317       Ni322   1.922       .  S
O317        C950   1.281   1_455  A
O318       Ni478   1.921   1_554  S
O318        C949   1.280       .  A
O319       Ni478   1.910   1_554  S
O319        C324   1.278       .  A
O320       Ni322   1.908       .  S
O320        C323   1.281   1_455  A
Ni321       O469   1.911       .  S
Ni321       O472   1.917       .  S
Ni321     Ni1102   2.393       .  S
Ni322       O474   1.916       .  S
Ni322       O475   1.907       .  S
Ni322     Ni1101   2.394   1_455  S
C323        O937   1.280       .  A
C323        C461   1.469       .  S
C324        O938   1.281   1_455  A
C324       C1089   1.467       .  S
C325        O942   1.280       .  A
C325        C460   1.437       .  S
C326        O941   1.281       .  A
C326        C457   1.436       .  S
O327       Ni335   1.918       .  S
O327        C961   1.279   1_455  A
O328       Ni335   1.912       .  S
O328        C962   1.278   1_455  A
O329       Ni335   1.930       .  S
O329        C963   1.286   1_455  A
O330       Ni335   1.932       .  S
O330        C964   1.283   1_455  A
O331       Ni336   1.919       .  S
O331        C340   1.283       .  A
O332       Ni336   1.922       .  S
O332        C339   1.280       .  A
O333       Ni336   1.926       .  S
O333        C338   1.282       .  A
O334       Ni336   1.920       .  S
O334        C337   1.280       .  A
Ni335      Ni960   2.390   1_455  S
Ni336      Ni959   2.390       .  S
C337        O951   1.279       .  A
C337        C459   1.437       .  S
C338        O952   1.278       .  A
C338        C458   1.436       .  S
C339        O953   1.286       .  A
C339        C453   1.487       .  S
C340        O954   1.283       .  A
C340        C449   1.487       .  S
O341       Ni347   1.927       .  S
O342       Ni365   1.895       .  S
O342        C507   1.263   1_565  A
O343        H366   0.966       .  S
O343       Ni503   1.919   1_554  S
O343      Ni1145   1.900       .  S
C344        O361   1.259   1_554  A
C344        O977   1.270       .  A
C344        C466   1.466       .  S
O345       Ni364   1.922       .  S
O346       Ni364   1.899       .  S
O346        C348   1.270       .  A
Ni347       O350   1.937       .  S
Ni347       O352   1.908       .  S
Ni347       O499   1.922       .  S
C348        O982   1.283   1_455  A
C348       C1069   1.478       .  S
O349       Ni365   1.889       .  S
O349        C355   1.262   1_455  A
O350        C979   1.273       .  A
C351        O498   1.262   1_544  A
C351        C433   1.471   1_544  S
O352        C354   1.273       .  A
O353       Ni364   1.932       .  S
O353        C968   1.270       .  A
C354        O984   1.276       .  A
C354        C441   1.477       .  S
C355        O974   1.273       .  A
C355        C462   1.466       .  S
H356        O357   0.966       .  S
O357      Ni1139   1.911   1_455  S
O357       Ni520   1.918       .  S
O358       Ni359   1.953       .  S
O358        C972   1.283       .  A
Ni359       O363   1.896       .  S
Ni359       O361   1.888   1_554  S
Ni359      O1137   1.909   1_554  S
O360       Ni365   1.944       .  S
O360        C978   1.276   1_455  A
C362        O519   1.266       .  A
C362        C437   1.490       .  S
O363        C518   1.265       .  A
Ni364       O513   1.925   1_554  S
Ni365      O1123   1.905   1_455  S
O367       Ni373   1.915       .  S
O368       Ni391   1.906       .  S
O368        C377   1.270       .  A
O369        H392   0.966       .  S
O369       Ni373   1.920       .  S
O369      Ni1015   1.912       .  S
C370        O387   1.276       .  A
C370       O1003   1.273       .  A
C370        C454   1.483       .  S
O371       Ni390   1.927       .  S
O372       Ni390   1.907       .  S
O372        C374   1.270       .  A
Ni373       O376   1.928       .  S
Ni373       O378   1.897       .  S
C374       O1008   1.272   1_455  A
C374       C1066   1.473   1_455  S
O375       Ni391   1.924   1_655  S
O375        C381   1.269       .  A
O376       C1005   1.268       .  A
C377        C426   1.475       .  S
O378        C380   1.271       .  A
O379       Ni390   1.929       .  S
O379        C994   1.273       .  A
C380       O1010   1.284       .  A
C380        C446   1.475       .  S
C381       O1000   1.268       .  A
C381        C450   1.481       .  S
H382        O383   0.966       .  S
O383      Ni1009   1.908   1_455  S
O383       Ni390   1.915       .  S
O384       Ni385   1.933       .  S
O384        C998   1.272       .  A
Ni385       O389   1.913       .  S
Ni385       O387   1.927       .  S
Ni385      O1007   1.908       .  S
O386       Ni391   1.955   1_655  S
O386       C1004   1.284       .  A
C388        O389   1.269       .  A
C388        C429   1.474       .  S
Ni391       O993   1.912   1_455  S
O393       Ni401   1.940       .  S
O393        C403   1.286       .  A
O394       Ni401   1.937       .  S
O394        C560   1.287       .  A
O395       Ni557   1.918   1_554  S
O395        C405   1.279       .  A
O396       Ni401   1.913       .  S
O396        C406   1.278       .  A
O397       Ni558   1.915       .  S
O398       Ni402   1.920       .  S
O399       Ni402   1.915       .  S
O400       Ni402   1.920       .  S
Ni401       O551   1.913       .  S
Ni402       O553   1.915   1_554  S
C403        C438   1.487       .  S
C404        O550   1.280       .  A
C404        C434   1.472       .  S
C405        C424   1.439       .  S
C406        C422   1.435       .  S
O407       Ni415   1.909       .  S
O408       Ni415   1.910       .  S
O409       Ni415   1.920       .  S
O410       Ni415   1.926       .  S
O411       Ni416   1.922       .  S
O411        C420   1.281       .  A
O412       Ni416   1.925       .  S
O412        C419   1.282       .  A
O413       Ni416   1.913       .  S
O413        C418   1.280   1_565  A
O414       Ni416   1.907       .  S
O414        C417   1.278       .  A
C418        C425   1.473       .  S
C419        C421   1.437       .  S
C420        C423   1.438       .  S
C425        C426   1.347   1_545  D
C426        H428   1.087       .  S
C429        C430   1.347       .  D
C429        H431   1.087       .  S
C437        C438   1.346       .  D
C437        H595   1.087       .  S
H439        C593   1.087       .  S
C442        C998   1.473       .  S
C442        H756   1.087       .  S
H444        C754   1.087       .  S
C445        C972   1.478       .  S
C445       H1071   1.087       .  S
C446        H448   1.087       .  S
H447       C1069   1.087       .  S
C449       C1074   1.346       .  D
C449       H1075   1.086       .  S
C450       C1073   1.346   1_655  D
C450       H1076   1.087       .  S
H451       C1073   1.086       .  S
H452       C1074   1.087       .  S
C453        C454   1.343       .  D
C453        H455   1.086       .  S
C454       H1080   1.087       .  S
H456       C1078   1.087       .  S
C457        C458   1.207       .  T
C459        C460   1.207       .  T
C461        C462   1.341       .  D
C461       H1087   1.087       .  S
C462        H464   1.087   1_655  S
H463       C1085   1.087       .  S
C465        C948   1.467       .  S
C465        C466   1.340       .  D
C465        H467   1.087       .  S
C466       H1248   1.087       .  S
H468       C1246   1.087       .  S
O469       C1103   1.278       .  A
O470       Ni477   1.912       .  S
O470       C1104   1.282       .  A
O471       Ni477   1.919       .  S
O471        C481   1.280       .  A
O472        C482   1.279       .  A
O473       Ni478   1.927       .  S
O473       C1106   1.282       .  A
O474       C1105   1.279   1_455  A
O475        C480   1.278       .  A
O476       Ni478   1.908       .  S
O476        C479   1.281   1_455  A
Ni477      Ni946   2.394       .  S
Ni478      Ni945   2.393   1_455  S
C479       O1093   1.278       .  A
C479        C617   1.465       .  S
C480       O1094   1.282   1_455  A
C480       C1245   1.464       .  S
C481       O1098   1.279       .  A
C481        C616   1.435       .  S
C482       O1097   1.282       .  A
C482        C613   1.440       .  S
O483       Ni491   1.921       .  S
O483       C1117   1.280   1_455  A
O484       Ni491   1.917       .  S
O484       C1118   1.279       .  A
O485       Ni491   1.930       .  S
O485       C1119   1.285   1_455  A
O486       Ni491   1.930       .  S
O486       C1120   1.283       .  A
O487       Ni492   1.924       .  S
O487        C496   1.283       .  A
O488       Ni492   1.926       .  S
O488        C495   1.281       .  A
O489       Ni492   1.925       .  S
O489        C494   1.281       .  A
O490       Ni492   1.915       .  S
O490        C493   1.279       .  A
Ni491     Ni1116   2.390   1_455  S
Ni492     Ni1115   2.390       .  S
C493       O1107   1.280       .  A
C493        C615   1.435       .  S
C494       O1108   1.279       .  A
C494        C614   1.440       .  S
C495       O1109   1.285       .  A
C495        C609   1.487       .  S
C496       O1110   1.283       .  A
C496        C605   1.487       .  S
O497       Ni503   1.933       .  S
O498       Ni521   1.893   1_556  S
O499        H522   0.966       .  S
O499       Ni989   1.905       .  S
C500        O517   1.262       .  A
C500       O1133   1.273       .  A
C500        C622   1.465       .  S
O501       Ni520   1.924       .  S
O502       Ni520   1.906       .  S
O502        C504   1.272       .  A
Ni503       O506   1.940       .  S
Ni503       O508   1.913       .  S
C504       O1138   1.274   1_455  A
C504       C1225   1.470   1_455  S
O505       Ni521   1.888       .  S
O505        C511   1.264   1_454  A
O506       C1135   1.275       .  A
C507        C589   1.472   1_545  S
O508        C510   1.271       .  A
O509       Ni520   1.934       .  S
O509       C1124   1.273   1_455  A
C510       O1140   1.272       .  A
C510        C597   1.473       .  S
C511       O1130   1.275       .  A
C511        C618   1.465   1_655  S
H512        O513   0.967       .  S
O513       Ni983   1.909   1_456  S
O514       Ni515   1.939       .  S
O514       C1128   1.274       .  A
Ni515       O519   1.906       .  S
Ni515       O517   1.889       .  S
Ni515       O981   1.911       .  S
O516       Ni521   1.935   1_556  S
O516       C1134   1.272   1_455  A
C518        C593   1.477       .  S
Ni521       O967   1.900   1_455  S
O523       Ni529   1.919       .  S
O524       Ni547   1.908       .  S
O524        C533   1.268       .  A
O525        H548   0.966       .  S
O525       Ni529   1.918       .  S
O525      Ni1171   1.914       .  S
C526        O543   1.271       .  A
C526       O1159   1.271       .  A
C526        C610   1.485       .  S
O527       Ni546   1.922       .  S
O528       Ni546   1.901       .  S
O528        C530   1.272       .  A
Ni529       O532   1.932       .  S
Ni529       O534   1.902       .  S
C530       O1164   1.277   1_455  A
C530       C1222   1.477   1_455  S
O531       Ni547   1.922       .  S
O531        C537   1.270   1_455  A
O532       C1161   1.271       .  A
C533        C582   1.474       .  S
O534        C536   1.271       .  A
O535       Ni546   1.933       .  S
O535       C1150   1.271       .  A
C536       O1166   1.276       .  A
C536        C602   1.474   1_565  S
C537       O1156   1.271       .  A
C537        C606   1.483       .  S
H538        O539   0.966       .  S
O539      Ni1165   1.910   1_455  S
O539       Ni546   1.915       .  S
O540       Ni541   1.946       .  S
O540       C1154   1.277       .  A
Ni541       O545   1.909       .  S
Ni541       O543   1.925       .  S
Ni541      O1163   1.910       .  S
O542       Ni547   1.942       .  S
O542       C1160   1.276   1_455  A
C544        O545   1.269       .  A
C544        C585   1.473       .  S
Ni547      O1149   1.914   1_455  S
O549       Ni557   1.921       .  S
O549        C559   1.283       .  A
O550       Ni557   1.918       .  S
O551        C561   1.278       .  A
O552       Ni557   1.922       .  S
O552        C562   1.280       .  A
O554       Ni558   1.917       .  S
O555       Ni558   1.916       .  S
O556       Ni558   1.918       .  S
C559        C594   1.477       .  S
C560        C590   1.486       .  S
C561        C580   1.440       .  S
C562        C578   1.437       .  S
O563       Ni571   1.910       .  S
O564       Ni571   1.909       .  S
O565       Ni571   1.921       .  S
O566       Ni571   1.927       .  S
O567       Ni572   1.918       .  S
O567        C576   1.280   1_565  A
O568       Ni572   1.924       .  S
O568        C575   1.282   1_565  A
O569       Ni572   1.911       .  S
O569        C574   1.279   1_565  A
O570       Ni572   1.906       .  S
O570        C573   1.278       .  A
C574        C581   1.471       .  S
C575        C577   1.437       .  S
C576        C579   1.436       .  S
C581        C582   1.347   1_545  D
C582        H584   1.087       .  S
C585        C586   1.346       .  D
C585        H587   1.087       .  S
C593        C594   1.343   1_554  D
C598       C1154   1.477       .  S
C598        H912   1.087       .  S
H600        C910   1.087       .  S
C601       C1128   1.470       .  S
C601       H1227   1.087       .  S
C602        H604   1.087       .  S
H603       C1225   1.087       .  S
C605       C1230   1.346       .  D
C605       H1231   1.086       .  S
C606       C1229   1.346   1_655  D
C606       H1232   1.087       .  S
H607       C1229   1.086       .  S
H608       C1230   1.087       .  S
C609        C610   1.345       .  D
C609        H611   1.086       .  S
C610       H1236   1.087       .  S
H612       C1234   1.087       .  S
C613        C614   1.209       .  T
C615        C616   1.206       .  T
C617        C618   1.340   1_655  D
C617       H1243   1.087       .  S
C618        H620   1.087   1_556  S
H619       C1241   1.087       .  S
C621       C1104   1.464       .  S
C621        C622   1.339       .  D
C621        H623   1.087       .  S
C622       H1092   1.087       .  S
H624       C1090   1.087   1_655  S
O625       Ni789   1.907       .  S
O626       Ni633   1.911       .  S
O627       Ni633   1.922       .  S
O627        C637   1.281   1_655  A
O628       Ni789   1.917       .  S
O628        C638   1.279   1_655  A
O629       Ni634   1.920       .  S
O630       Ni790   1.915   1_554  S
O631       Ni790   1.916   1_554  S
O631        C636   1.280       .  A
O632       Ni634   1.920       .  S
O632        C635   1.283       .  A
Ni633       O781   1.914   1_554  S
Ni633       O784   1.919   1_554  S
Ni634       O786   1.914       .  S
Ni634       O787   1.920       .  S
C635        C773   1.467       .  S
C637        C772   1.436       .  S
C638        C769   1.435       .  S
O639       Ni647   1.924       .  S
O640       Ni647   1.918       .  S
O641       Ni647   1.919       .  S
O642       Ni647   1.919       .  S
O643       Ni648   1.927       .  S
O643        C652   1.284   1_655  A
O644       Ni648   1.929       .  S
O644        C651   1.284   1_655  A
O645       Ni648   1.918       .  S
O645        C650   1.280   1_655  A
O646       Ni648   1.913       .  S
O646        C649   1.278   1_655  A
C649        C771   1.436       .  S
C650        C770   1.435       .  S
C651        C765   1.480       .  S
C652        C761   1.480       .  S
O653       Ni659   1.944       .  S
O653        C986   1.275       .  A
O654       Ni677   1.923       .  S
O654        C819   1.273       .  A
O655        H678   0.966       .  S
O655       Ni815   1.920   1_554  S
O655       Ni983   1.900       .  S
C656        O673   1.261   1_454  A
C656        C778   1.468       .  S
O657       Ni676   1.924       .  S
O657        C975   1.271       .  A
O658       Ni676   1.901       .  S
O658        C660   1.270       .  A
Ni659       O662   1.937       .  S
Ni659       O664   1.907       .  S
Ni659       O811   1.918       .  S
O661       Ni677   1.897       .  S
O661        C667   1.265       .  A
C663        O810   1.265       .  A
C663        O969   1.271   1_556  A
C663        C745   1.472       .  S
O664        C666   1.274       .  A
O665       Ni676   1.933       .  S
C666        C753   1.473   1_655  S
C667        C774   1.472       .  S
H668        O669   0.966       .  S
O669       Ni989   1.912   1_545  S
O669       Ni832   1.921       .  S
O670       Ni671   1.949       .  S
Ni671       O675   1.901       .  S
Ni671       O673   1.892   1_554  S
Ni671       O967   1.902   1_545  S
O672       Ni677   1.942       .  S
C674        O965   1.272   1_545  A
C674        O831   1.266       .  A
C674        C749   1.474       .  S
O675        C830   1.267   1_545  A
Ni676       O825   1.923   1_554  S
Ni677       O981   1.916       .  S
O679       Ni685   1.903       .  S
O679       C1012   1.268       .  A
O680       Ni703   1.901       .  S
O680        C689   1.266       .  A
O681        H704   0.966       .  S
O681       Ni685   1.922       .  S
O681      Ni1009   1.943       .  S
C682        O699   1.268       .  A
C682        C766   1.483       .  S
O683       Ni702   1.927       .  S
O683       C1001   1.274   1_545  A
O684       Ni702   1.910       .  S
O684        C686   1.271       .  A
Ni685       O688   1.929       .  S
Ni685       O690   1.896       .  S
O687       Ni703   1.912       .  S
O687        C693   1.265       .  A
C689        O995   1.273       .  A
C689        C738   1.474       .  S
O690        C692   1.270       .  A
O691       Ni702   1.942       .  S
C692        C758   1.478       .  S
C693        C762   1.481       .  S
H694        O695   0.966       .  S
O695      Ni1015   1.916   1_545  S
O695       Ni702   1.916       .  S
O696       Ni697   1.938       .  S
Ni697       O701   1.899       .  S
Ni697       O699   1.908       .  S
Ni697       O993   1.935   1_545  S
O698       Ni703   1.957       .  S
C700        O991   1.270       .  A
C700        O701   1.264   1_565  A
C700        C741   1.471   1_565  S
Ni703      O1007   1.909       .  S
O705       Ni713   1.915       .  S
O705        C715   1.281   1_545  A
O706       Ni713   1.913       .  S
O706        C872   1.279       .  A
O707       Ni869   1.921   1_554  S
O707        C717   1.280   1_545  A
O708       Ni713   1.924       .  S
O708        C718   1.281       .  A
O709       Ni870   1.923       .  S
O709       C1030   1.281       .  A
O710       Ni714   1.923       .  S
O710       C1029   1.281       .  A
O711       Ni714   1.911       .  S
O711       C1028   1.281   1_554  A
O712       Ni714   1.917       .  S
O712       C1183   1.280   1_554  A
Ni713       O863   1.919       .  S
Ni713     Ni1182   2.392   1_545  S
Ni714       O865   1.917   1_554  S
Ni714     Ni1181   2.392   1_554  S
C715       O1180   1.281       .  A
C715        C750   1.473       .  S
C716        O862   1.279       .  A
C716       O1023   1.282   1_546  A
C716        C746   1.471       .  S
C717       O1022   1.280       .  A
C717        C736   1.439       .  S
C718       O1021   1.279   1_545  A
C718        C734   1.437       .  S
O719       Ni727   1.916       .  S
O719       C1041   1.282   1_545  A
O720       Ni727   1.921       .  S
O720       C1042   1.282       .  A
O721       Ni727   1.914       .  S
O721       C1043   1.278   1_545  A
O722       Ni727   1.918       .  S
O722       C1044   1.279   1_545  A
O723       Ni728   1.915       .  S
O723        C732   1.279       .  A
O724       Ni728   1.917       .  S
O724        C731   1.279       .  A
O725       Ni728   1.921       .  S
O725        C730   1.282       .  A
O726       Ni728   1.916       .  S
O726        C729   1.281       .  A
Ni727     Ni1040   2.392   1_545  S
Ni728     Ni1039   2.393       .  S
C729       O1031   1.279       .  A
C729       C1054   1.467       .  S
C730       O1032   1.279       .  A
C730        C737   1.469       .  S
C731       O1033   1.281       .  A
C731        C733   1.436       .  S
C732       O1034   1.282       .  A
C732        C735   1.439       .  S
C733       C1046   1.206       .  T
C734       C1045   1.207   1_545  T
C735       C1048   1.208       .  T
C736       C1047   1.208       .  T
C737        C738   1.343       .  D
C737       H1051   1.087       .  S
C738        H740   1.086       .  S
H739       C1049   1.087       .  S
C741        C742   1.341   1_545  D
C741        H743   1.087       .  S
C742       C1041   1.466       .  S
C742       H1056   1.087       .  S
H744       C1054   1.087       .  S
C745       C1058   1.344       .  D
C745       H1215   1.087       .  S
C746       C1057   1.341   1_545  D
C746       H1060   1.087   1_556  S
H747       C1213   1.087       .  S
H748       C1058   1.087   1_554  S
C749        C750   1.345   1_545  D
C749        H907   1.087       .  S
C750       H1064   1.087       .  S
H751        C905   1.087   1_545  S
H752       C1062   1.087       .  S
C753       C1066   1.342   1_455  D
C753       H1067   1.087       .  S
C754       C1065   1.344   1_645  D
H755       C1065   1.087       .  S
C757       C1070   1.341   1_445  D
C758       C1069   1.341   1_655  D
C758        H760   1.087       .  S
C765        C766   1.346   1_455  D
C765        H767   1.087       .  S
C769        C770   1.206       .  T
C771        C772   1.206       .  T
C773        C774   1.341       .  D
C774        H776   1.087       .  S
C777        C778   1.342       .  D
C777        H779   1.087       .  S
O782       Ni789   1.904       .  S
O783       Ni789   1.921       .  S
O783        C793   1.281   1_655  A
O784        C794   1.280   1_655  A
O785       Ni790   1.920       .  S
O787        C792   1.281       .  A
O788       Ni790   1.916       .  S
O788        C791   1.282       .  A
C791        C929   1.471       .  S
C793        C928   1.435       .  S
C794        C925   1.437       .  S
O795       Ni803   1.921       .  S
O796       Ni803   1.915       .  S
O797       Ni803   1.922       .  S
O798       Ni803   1.924       .  S
O799       Ni804   1.923       .  S
O799        C808   1.284   1_655  A
O800       Ni804   1.925       .  S
O800        C807   1.281       .  A
O801       Ni804   1.922       .  S
O801        C806   1.281       .  A
O802       Ni804   1.916       .  S
O802        C805   1.279   1_655  A
C805        C927   1.436       .  S
C806        C926   1.437   1_655  S
C807        C921   1.481       .  S
C808        C917   1.482       .  S
O809       Ni815   1.939       .  S
O809       C1142   1.275   1_556  A
O810       Ni833   1.898   1_556  S
O811        H834   0.966       .  S
O811      Ni1139   1.915       .  S
C812        O829   1.265   1_455  A
C812        C934   1.467   1_455  S
O813       Ni832   1.927       .  S
O813       C1131   1.272       .  A
O814       Ni832   1.906       .  S
O814        C816   1.272       .  A
Ni815       O818   1.943       .  S
Ni815       O820   1.913       .  S
O817       Ni833   1.893       .  S
O817        C823   1.266   1_554  A
C819       O1125   1.270       .  A
C819        C901   1.485       .  S
O820        C822   1.271   1_655  A
O821       Ni832   1.933       .  S
C822        C909   1.473       .  S
C823        C930   1.471       .  S
H824        O825   0.967       .  S
O825      Ni1145   1.922   1_546  S
O826       Ni827   1.941       .  S
Ni827       O831   1.901       .  S
Ni827       O829   1.894       .  S
Ni827      O1123   1.916   1_545  S
O828       Ni833   1.934   1_556  S
C830       O1121   1.274   1_554  A
C830        C905   1.477       .  S
Ni833      O1137   1.923   1_554  S
O835       Ni841   1.911       .  S
O835       C1168   1.270       .  A
O836       Ni859   1.900       .  S
O836        C845   1.266       .  A
O837        H860   0.965       .  S
O837       Ni841   1.917       .  S
O837      Ni1165   1.931       .  S
C838        O855   1.269   1_455  A
C838        C922   1.479       .  S
O839       Ni858   1.917       .  S
O839       C1157   1.271   1_545  A
O840       Ni858   1.904       .  S
O840        C842   1.272       .  A
Ni841       O844   1.929       .  S
Ni841       O846   1.900       .  S
O843       Ni859   1.920       .  S
O843        C849   1.269       .  A
C845       O1151   1.272       .  A
C845        C894   1.473       .  S
O846        C848   1.272       .  A
O847       Ni858   1.932       .  S
C848        C914   1.472   1_655  S
C849        C918   1.479       .  S
H850        O851   0.966       .  S
O851      Ni1171   1.926   1_545  S
O851       Ni858   1.916       .  S
O852       Ni853   1.944       .  S
Ni853       O857   1.900       .  S
Ni853       O855   1.916       .  S
Ni853      O1149   1.930   1_545  S
O854       Ni859   1.944       .  S
C856       O1147   1.271   1_545  A
C856        O857   1.264       .  A
C856        C897   1.473       .  S
Ni859      O1163   1.928       .  S
O861       Ni869   1.917   1_554  S
O861        C871   1.282   1_545  A
O862       Ni869   1.913       .  S
O863        C873   1.280       .  A
O864       Ni869   1.924       .  S
O864        C874   1.281   1_545  A
O865       C1186   1.279       .  A
O866       Ni870   1.930       .  S
O866       C1185   1.283       .  A
O867       Ni870   1.917       .  S
O867       C1184   1.279       .  A
O868       Ni870   1.919       .  S
O868       C1027   1.280       .  A
Ni869     Ni1026   2.392   1_546  S
Ni870     Ni1025   2.390       .  S
C871       O1024   1.281       .  A
C871        C906   1.476       .  S
C872       O1179   1.282   1_545  A
C872        C902   1.471       .  S
C873       O1178   1.279   1_545  A
C873        C892   1.435       .  S
C874       O1177   1.279       .  A
C874        C890   1.437   1_565  S
O875       Ni883   1.919       .  S
O875       C1197   1.282   1_545  A
O876       Ni883   1.920       .  S
O876       C1198   1.282       .  A
O877       Ni883   1.915       .  S
O877       C1199   1.279       .  A
O878       Ni883   1.918       .  S
O878       C1200   1.279       .  A
O879       Ni884   1.917       .  S
O879        C888   1.279       .  A
O880       Ni884   1.919       .  S
O880        C887   1.280       .  A
O881       Ni884   1.920       .  S
O881        C886   1.282       .  A
O882       Ni884   1.917       .  S
O882        C885   1.281       .  A
Ni883     Ni1196   2.393   1_545  S
Ni884     Ni1195   2.393       .  S
C885       O1187   1.279       .  A
C885       C1210   1.468       .  S
C886       O1188   1.279       .  A
C886        C893   1.469       .  S
C887       O1189   1.280       .  A
C887        C889   1.437       .  S
C888       O1190   1.282       .  A
C888        C891   1.440       .  S
C889       C1202   1.207       .  T
C890       C1201   1.207       .  T
C891       C1204   1.209       .  T
C892       C1203   1.206       .  T
C893        C894   1.342       .  D
C893       H1207   1.087       .  S
C894        H896   1.087       .  S
H895       C1205   1.087       .  S
C897        C898   1.342   1_545  D
C897        H899   1.087       .  S
C898       C1197   1.466       .  S
C898       H1212   1.087       .  S
H900       C1210   1.087       .  S
C901       C1214   1.343       .  D
C901       H1059   1.087       .  S
C902       C1213   1.342   1_545  D
C902       H1216   1.087       .  S
H903       C1057   1.087       .  S
H904       C1214   1.087       .  S
C905        C906   1.345       .  D
C906       H1220   1.087   1_554  S
H908       C1218   1.087       .  S
C909       C1222   1.344   1_455  D
C909       H1223   1.087       .  S
C910       C1221   1.342   1_655  D
H911       C1221   1.087       .  S
C913       C1226   1.344   1_655  D
C914       C1225   1.342   1_455  D
C914        H916   1.087       .  S
C921        C922   1.344   1_655  D
C921        H923   1.086       .  S
C925        C926   1.207       .  T
C927        C928   1.206       .  T
C929        C930   1.342       .  D
C930        H932   1.087   1_556  S
C933        C934   1.343   1_455  D
C933        H935   1.087       .  S
O937      Ni1101   1.916       .  S
O938       Ni945   1.910   1_554  S
O939       Ni945   1.919   1_554  S
O939        C949   1.280   1_655  A
O940      Ni1101   1.915       .  S
O940        C950   1.279       .  A
O941       Ni946   1.922       .  S
O942      Ni1102   1.921   1_554  S
O943      Ni1102   1.910   1_554  S
O943        C948   1.278       .  A
O944       Ni946   1.908       .  S
O944        C947   1.281       .  A
Ni945      O1093   1.911       .  S
Ni945      O1096   1.917       .  S
Ni946      O1098   1.916       .  S
Ni946      O1099   1.907       .  S
C947       C1085   1.469       .  S
C949       C1084   1.437       .  S
C950       C1081   1.436       .  S
O951       Ni959   1.918       .  S
O952       Ni959   1.912       .  S
O953       Ni959   1.930       .  S
O954       Ni959   1.932       .  S
O955       Ni960   1.919       .  S
O955        C964   1.283       .  A
O956       Ni960   1.922       .  S
O956        C963   1.280       .  A
O957       Ni960   1.926       .  S
O957        C962   1.282       .  A
O958       Ni960   1.920       .  S
O958        C961   1.280       .  A
C961       C1083   1.437   1_655  S
C962       C1082   1.436       .  S
C963       C1077   1.487       .  S
C964       C1073   1.486   1_655  S
O965       Ni971   1.927       .  S
O966       Ni989   1.895       .  S
O966       C1131   1.263   1_565  A
O967        H990   0.966       .  S
O967      Ni1127   1.919   1_554  S
C968        O985   1.259   1_454  A
C968       C1090   1.465       .  S
O969       Ni988   1.922       .  S
O970       Ni988   1.899       .  S
O970        C972   1.270       .  A
Ni971       O974   1.937       .  S
Ni971       O976   1.908       .  S
Ni971      O1123   1.922       .  S
O973       Ni989   1.889       .  S
O973        C979   1.262       .  A
C975       O1122   1.262   1_544  A
C975       C1057   1.471   1_544  S
O976        C978   1.273       .  A
O977       Ni988   1.932       .  S
C978       C1065   1.477   1_655  S
C979       C1086   1.466       .  S
H980        O981   0.966       .  S
O981      Ni1144   1.918       .  S
O982       Ni983   1.953       .  S
Ni983       O987   1.896       .  S
Ni983       O985   1.887   1_554  S
O984       Ni989   1.944       .  S
C986       O1143   1.266       .  A
C986       C1061   1.490       .  S
O987       C1142   1.265       .  A
Ni988      O1137   1.925   1_554  S
O991       Ni997   1.915       .  S
O992      Ni1015   1.906       .  S
O992       C1001   1.270       .  A
O993       H1016   0.966       .  S
O993       Ni997   1.920       .  S
C994       O1011   1.276   1_455  A
C994       C1078   1.483       .  S
O995      Ni1014   1.927       .  S
O996      Ni1014   1.907       .  S
O996        C998   1.270       .  A
Ni997      O1000   1.928       .  S
Ni997      O1002   1.897       .  S
O999      Ni1015   1.924       .  S
O999       C1005   1.269       .  A
C1001      C1050   1.476       .  S
O1002      C1004   1.271       .  A
O1003     Ni1014   1.929       .  S
C1004      C1070   1.475       .  S
C1005      C1074   1.481       .  S
H1006      O1007   0.966       .  S
O1007     Ni1014   1.915       .  S
O1008     Ni1009   1.933       .  S
Ni1009     O1013   1.913       .  S
Ni1009     O1011   1.927       .  S
O1010     Ni1015   1.955       .  S
C1012      O1013   1.269       .  A
C1012      C1053   1.474       .  S
O1017     Ni1025   1.940       .  S
O1017      C1027   1.286       .  A
O1018     Ni1025   1.937       .  S
O1018      C1184   1.287       .  A
O1019     Ni1181   1.918   1_554  S
O1019      C1029   1.279       .  A
O1020     Ni1025   1.913       .  S
O1020      C1030   1.278       .  A
O1021     Ni1182   1.915       .  S
O1022     Ni1026   1.920       .  S
O1023     Ni1026   1.915       .  S
O1024     Ni1026   1.920       .  S
Ni1025     O1175   1.913       .  S
Ni1026     O1177   1.915   1_554  S
C1027      C1062   1.488       .  S
C1028      O1174   1.280       .  A
C1028      C1058   1.472       .  S
C1029      C1048   1.439       .  S
C1030      C1046   1.435       .  S
O1031     Ni1039   1.909       .  S
O1032     Ni1039   1.910       .  S
O1033     Ni1039   1.920       .  S
O1034     Ni1039   1.926       .  S
O1035     Ni1040   1.923       .  S
O1035      C1044   1.281       .  A
O1036     Ni1040   1.925       .  S
O1036      C1043   1.282       .  A
O1037     Ni1040   1.913       .  S
O1037      C1042   1.280   1_565  A
O1038     Ni1040   1.907       .  S
O1038      C1041   1.278       .  A
C1042      C1049   1.473       .  S
C1043      C1045   1.437       .  S
C1044      C1047   1.439       .  S
C1049      C1050   1.347   1_545  D
C1050      H1052   1.087       .  S
C1053      C1054   1.347       .  D
C1053      H1055   1.087       .  S
C1061      C1062   1.347       .  D
C1061      H1219   1.087       .  S
H1063      C1217   1.087       .  S
C1070      H1072   1.087       .  S
C1077      C1078   1.343   1_655  D
C1077      H1079   1.086       .  S
C1081      C1082   1.207       .  T
C1083      C1084   1.207       .  T
C1085      C1086   1.341       .  D
C1086      H1088   1.087       .  S
C1089      C1090   1.340       .  D
C1089      H1091   1.087       .  S
O1094     Ni1101   1.912       .  S
O1095     Ni1101   1.919       .  S
O1095      C1105   1.280       .  A
O1096      C1106   1.279   1_655  A
O1097     Ni1102   1.927       .  S
O1099      C1104   1.278       .  A
O1100     Ni1102   1.908       .  S
O1100      C1103   1.281       .  A
C1103      C1241   1.465       .  S
C1105      C1240   1.435       .  S
C1106      C1237   1.440       .  S
O1107     Ni1115   1.921       .  S
O1108     Ni1115   1.917       .  S
O1109     Ni1115   1.930       .  S
O1110     Ni1115   1.930       .  S
O1111     Ni1116   1.924       .  S
O1111      C1120   1.283   1_655  A
O1112     Ni1116   1.926       .  S
O1112      C1119   1.281       .  A
O1113     Ni1116   1.925       .  S
O1113      C1118   1.281   1_655  A
O1114     Ni1116   1.915       .  S
O1114      C1117   1.279       .  A
C1117      C1239   1.435       .  S
C1118      C1238   1.440       .  S
C1119      C1233   1.487       .  S
C1120      C1229   1.487       .  S
O1121     Ni1127   1.933       .  S
O1122     Ni1145   1.893   1_556  S
O1123      H1146   0.966       .  S
C1124      O1141   1.262       .  A
C1124      C1246   1.464       .  S
O1125     Ni1144   1.924       .  S
O1126     Ni1144   1.906       .  S
O1126      C1128   1.272       .  A
Ni1127     O1130   1.939       .  S
Ni1127     O1132   1.913       .  S
O1129     Ni1145   1.888       .  S
O1129      C1135   1.264   1_554  A
C1131      C1213   1.472   1_545  S
O1132      C1134   1.271       .  A
O1133     Ni1144   1.934       .  S
C1134      C1221   1.473   1_655  S
C1135      C1242   1.465       .  S
H1136      O1137   0.967       .  S
O1138     Ni1139   1.939       .  S
Ni1139     O1143   1.907       .  S
Ni1139     O1141   1.889       .  S
O1140     Ni1145   1.935   1_556  S
C1142      C1217   1.477       .  S
O1147     Ni1153   1.919       .  S
O1148     Ni1171   1.908       .  S
O1148      C1157   1.268       .  A
O1149      H1172   0.966       .  S
O1149     Ni1153   1.918       .  S
C1150      O1167   1.271   1_455  A
C1150      C1234   1.485       .  S
O1151     Ni1170   1.922       .  S
O1152     Ni1170   1.901       .  S
O1152      C1154   1.272       .  A
Ni1153     O1156   1.932       .  S
Ni1153     O1158   1.902       .  S
O1155     Ni1171   1.922       .  S
O1155      C1161   1.270       .  A
C1157      C1206   1.474       .  S
O1158      C1160   1.271       .  A
O1159     Ni1170   1.933       .  S
C1160      C1226   1.474   1_665  S
C1161      C1230   1.483       .  S
H1162      O1163   0.966       .  S
O1163     Ni1170   1.915       .  S
O1164     Ni1165   1.947       .  S
Ni1165     O1169   1.909       .  S
Ni1165     O1167   1.925       .  S
O1166     Ni1171   1.942       .  S
C1168      O1169   1.269       .  A
C1168      C1209   1.473       .  S
O1173     Ni1181   1.921       .  S
O1173      C1183   1.283       .  A
O1174     Ni1181   1.918       .  S
O1175      C1185   1.278       .  A
O1176     Ni1181   1.922       .  S
O1176      C1186   1.280       .  A
O1178     Ni1182   1.917       .  S
O1179     Ni1182   1.916       .  S
O1180     Ni1182   1.919       .  S
C1183      C1218   1.477       .  S
C1184      C1214   1.486       .  S
C1185      C1204   1.440       .  S
C1186      C1202   1.437       .  S
O1187     Ni1195   1.910       .  S
O1188     Ni1195   1.909       .  S
O1189     Ni1195   1.921       .  S
O1190     Ni1195   1.927       .  S
O1191     Ni1196   1.918       .  S
O1191      C1200   1.280   1_565  A
O1192     Ni1196   1.924       .  S
O1192      C1199   1.281   1_565  A
O1193     Ni1196   1.911       .  S
O1193      C1198   1.279   1_565  A
O1194     Ni1196   1.906       .  S
O1194      C1197   1.278       .  A
C1198      C1205   1.471       .  S
C1199      C1201   1.437       .  S
C1200      C1203   1.435       .  S
C1205      C1206   1.347   1_545  D
C1206      H1208   1.087       .  S
C1209      C1210   1.346       .  D
C1209      H1211   1.087       .  S
C1217      C1218   1.343   1_554  D
C1226      H1228   1.087       .  S
C1233      C1234   1.345   1_655  D
C1233      H1235   1.086       .  S
C1237      C1238   1.209       .  T
C1239      C1240   1.206       .  T
C1241      C1242   1.340       .  D
C1242      H1244   1.087   1_556  S
C1245      C1246   1.339   1_455  D
C1245      H1247   1.087       .  S
