geometry optimzed in LAMMPS
_audit_creation_date              2020-11-30 
_audit_creation_method            'lammps2cif' 
_symmetry_space_group_name_H-M    'P1' 
_symmetry_Int_Tables_number       1 
_symmetry_cell_setting            triclinic 
loop_ 
_symmetry_equiv_pos_as_xyz 
  x,y,z 
_cell_length_a                    40.31077599 
_cell_length_b                    40.40108497209387 
_cell_length_c                    40.417376908577005 
_cell_angle_alpha                 89.83312983138129 
_cell_angle_beta                  89.91982052542026 
_cell_angle_gamma                 90.01672898256608 
loop_ 
_atom_site_label 
_atom_site_type_symbol 
_atom_site_fract_x 
_atom_site_fract_y 
_atom_site_fract_z 
_atom_site_charge 
O1          O  0.88208288  0.91710492  0.66327366    -0.82300
C2          C  0.80793820  0.80598766  0.62223904     0.97100
O3          O  0.80242571  0.83568429  0.61431258    -0.71400
O4          O  0.79645878  0.87270487  0.66609347    -0.75000
Al5        Al  0.82264690  0.87616431  0.62746681     1.49000
C6          C  0.80391899  0.88222282  0.69476907     0.92300
O7          O  0.86865566  0.83562102  0.70794969    -0.81200
O8          O  0.91797606  0.84199024  0.62468985    -0.74800
Al9        Al  0.87465012  0.87534976  0.68345542     1.90100
O10         O  0.88803434  0.80161732  0.67069684    -0.73800
O11         O  0.86829075  0.83274448  0.58458516    -0.73700
O12         O  0.83605611  0.79704072  0.63253583    -0.79300
O13         O  0.84472614  0.88150472  0.58664961    -0.77600
O14         O  0.85781359  0.85773890  0.64674446    -1.13700
O15         O  0.83487564  0.92070947  0.63653426    -0.72900
C16         C  0.86070848  0.93399479  0.64796890     0.97800
C17         C  0.87851365  0.80714431  0.69987556     0.94200
Al18       Al  0.87609864  0.82145050  0.62953293     1.55600
O19         O  0.83350894  0.88934478  0.70165246    -0.77500
C20         C  0.85914219  0.85906140  0.57056306     0.98400
C21         C  0.93405839  0.85621825  0.64728624     0.93300
O22         O  0.91972950  0.86534117  0.67347454    -0.82800
O23         O  0.67078831  0.88251606  0.90770320    -0.82300
C24         C  0.62648643  0.80459838  0.79954264     0.97100
O25         O  0.62147247  0.79902417  0.82981934    -0.71400
O26         O  0.67554485  0.79670380  0.86472571    -0.75000
Al27       Al  0.63572224  0.82100818  0.86910752     1.49000
C28         C  0.70438628  0.80556879  0.87268267     0.92300
O29         O  0.71209935  0.87148520  0.82477267    -0.81200
O30         O  0.62809487  0.91657779  0.83115147    -0.74800
Al31       Al  0.68918777  0.87588521  0.86509944     1.90100
O32         O  0.67244643  0.88517166  0.79041534    -0.73800
O33         O  0.58848674  0.86565302  0.82791385    -0.73700
O34         O  0.63460498  0.83308294  0.78977510    -0.79300
O35         O  0.59382719  0.84082161  0.87590346    -0.77600
O36         O  0.65242645  0.85693192  0.84911577    -1.13700
O37         O  0.64630807  0.83441603  0.91288305    -0.72900
C38         C  0.65725208  0.86073314  0.92550659     0.97800
C39         C  0.70260640  0.87940747  0.79616902     0.94200
Al40       Al  0.63259285  0.87362266  0.81306245     1.55600
O41         O  0.71063837  0.83563527  0.87825941    -0.77500
C42         C  0.57616981  0.85551082  0.85478342     0.98400
C43         C  0.65034714  0.93370557  0.84465925     0.93300
O44         O  0.67646935  0.92032068  0.85537295    -0.82800
O45         O  0.83967260  0.62630141  0.91001486    -0.82300
C46         C  0.87711819  0.70199302  0.79798159     0.97100
O47         O  0.88685392  0.70659073  0.82723960    -0.71400
O48         O  0.83460311  0.71132292  0.86495976    -0.75000
Al49       Al  0.87390002  0.68592678  0.86787838     1.49000
C50         C  0.80587151  0.70347416  0.87461550     0.92300
O51         O  0.79332949  0.63721167  0.82920316    -0.81200
O52         O  0.87818552  0.59161219  0.83166609    -0.74800
Al53       Al  0.81887534  0.63264951  0.86830302     1.90100
O54         O  0.83053606  0.62078734  0.79358072    -0.73800
O55         O  0.91685870  0.64268322  0.82285911    -0.73700
O56         O  0.86636568  0.67404290  0.78932907    -0.79300
O57         O  0.91530917  0.66410208  0.87252175    -0.77600
O58         O  0.85481493  0.65059800  0.84975901    -1.13700
O59         O  0.86516751  0.67400071  0.91254719    -0.72900
C60         C  0.85425232  0.64832381  0.92656578     0.97800
C61         C  0.80101585  0.62835106  0.80037052     0.94200
Al62       Al  0.87160597  0.63371488  0.81259061     1.55600
O63         O  0.79929250  0.67372037  0.88173209    -0.77500
C64         C  0.93129686  0.65056354  0.84934819     0.98400
C65         C  0.85674725  0.57458461  0.84676339     0.93300
O66         O  0.83090037  0.58787363  0.85848858    -0.82800
O67         O  0.66828092  0.63423335  0.58480488    -0.82300
C68         C  0.62541719  0.70295348  0.69856618     0.97100
O69         O  0.61832180  0.70993598  0.66895035    -0.71400
O70         O  0.67135180  0.71821421  0.63268590    -0.75000
Al71       Al  0.63254623  0.69205961  0.62746094     1.49000
C72         C  0.70000985  0.71141055  0.62225659     0.92300
O73         O  0.71313556  0.64538111  0.66574082    -0.81200
O74         O  0.63070379  0.59469588  0.65716952    -0.74800
Al75       Al  0.68885871  0.64050134  0.62614193     1.90100
O76         O  0.67606399  0.62392087  0.69910197    -0.73800
O77         O  0.58961841  0.64362103  0.66782437    -0.73700
O78         O  0.63647465  0.67462523  0.70576060    -0.79300
O79         O  0.59150933  0.67015776  0.62063741    -0.77600
O80         O  0.65188310  0.65614907  0.64434818    -1.13700
O81         O  0.64261248  0.68199150  0.58217816    -0.72900
C82         C  0.65360642  0.65624036  0.56823020     0.97800
C83         C  0.70539526  0.63348721  0.69354279     0.94200
Al84       Al  0.63458463  0.63589340  0.67948940     1.55600
O85         O  0.70669750  0.68231762  0.61321277    -0.77500
C86         C  0.57533953  0.65427159  0.64215321     0.98400
C87         C  0.65413920  0.57941706  0.64321765     0.93300
O88         O  0.67998762  0.59487124  0.63480384    -0.82800
O89         O  0.87846925  0.16911636  0.58027254    -0.82300
C90         C  0.80537330  0.12915252  0.69251237     0.97100
O91         O  0.80010368  0.11984383  0.66323653    -0.71400
O92         O  0.79299968  0.17148016  0.62515338    -0.75000
Al93       Al  0.81980487  0.13290678  0.62226542     1.49000
C94         C  0.79978743  0.20026165  0.61501905     0.92300
O95         O  0.86499672  0.21474002  0.66060120    -0.81200
O96         O  0.91549733  0.13220917  0.65611674    -0.74800
Al97       Al  0.87103707  0.18986039  0.62150204     1.90100
O98         O  0.88498442  0.17819857  0.69529100    -0.73800
O99         O  0.86588409  0.09183059  0.66639437    -0.73700
O100        O  0.83343217  0.14016303  0.70073478    -0.79300
O101        O  0.84243026  0.09162719  0.61770360    -0.77600
O102        O  0.85482278  0.15311722  0.63993543    -1.13700
O103        O  0.83160216  0.14190158  0.57760011    -0.72900
C104        C  0.85711984  0.15357037  0.56369897     0.97800
C105        C  0.87530635  0.20715339  0.68900729     0.94200
Al106      Al  0.87340159  0.13687317  0.67647244     1.55600
O107        O  0.82926422  0.20765981  0.60751624    -0.77500
C108        C  0.85682109  0.07640420  0.64092615     0.98400
C109        C  0.93150124  0.15508997  0.64203998     0.93300
O110        O  0.91651512  0.18053089  0.63156152    -0.82800
O111        O  0.87892587  0.34085563  0.90479522    -0.82300
C112        C  0.80893957  0.37998312  0.78977398     0.97100
O113        O  0.80206663  0.38784825  0.81917215    -0.71400
O114        O  0.79464444  0.33597946  0.85704754    -0.75000
Al115      Al  0.82050184  0.37501737  0.86087640     1.49000
C116        C  0.80151583  0.30764946  0.86819555     0.92300
O117        O  0.86689858  0.29396050  0.82495036    -0.81200
O118        O  0.91755992  0.37643215  0.82995880    -0.74800
Al119      Al  0.87242790  0.31915734  0.86382401     1.90100
O120        O  0.88801192  0.32985243  0.79026605    -0.73800
O121        O  0.86822854  0.41672494  0.81850263    -0.73700
O122        O  0.83717886  0.36856969  0.78282974    -0.79300
O123        O  0.84225721  0.41633549  0.86600151    -0.77600
O124        O  0.85642906  0.35544210  0.84450928    -1.13700
O125        O  0.83096956  0.36641520  0.90625771    -0.72900
C126        C  0.85675207  0.35611599  0.92073963     0.97800
C127        C  0.87737798  0.30111454  0.79645204     0.94200
Al128      Al  0.87613572  0.37160804  0.80849738     1.55600
O129        O  0.83066368  0.30135759  0.87762972    -0.77500
C130        C  0.85756066  0.43186726  0.84352871     0.98400
C131        C  0.93330047  0.35349366  0.84408476     0.93300
O132        O  0.91805166  0.32811421  0.85427957    -0.82800
O133        O  0.62740782  0.16683712  0.90508553    -0.82300
C134        C  0.70172452  0.13166613  0.79174915     0.97100
O135        O  0.70664358  0.12167823  0.82092358    -0.71400
O136        O  0.71288459  0.17273726  0.85997047    -0.75000
Al137      Al  0.68673717  0.13366954  0.86207189     1.49000
C138        C  0.70491752  0.20112420  0.87015896     0.92300
O139        O  0.63890904  0.21573314  0.82623663    -0.81200
O140        O  0.59162800  0.13164678  0.82685826    -0.74800
Al141      Al  0.63409276  0.18904021  0.86425999     1.90100
O142        O  0.62078517  0.18053262  0.78945350    -0.73800
O143        O  0.64252350  0.09265803  0.81624253    -0.73700
O144        O  0.67396690  0.14356242  0.78361410    -0.79300
O145        O  0.66445905  0.09233933  0.86568268    -0.77600
O146        O  0.65144230  0.15367218  0.84461412    -1.13700
O147        O  0.67507790  0.14135736  0.90714394    -0.72900
C148        C  0.64932049  0.15186465  0.92146637     0.97800
C149        C  0.62857805  0.20963456  0.79756150     0.94200
Al150      Al  0.63371930  0.13834657  0.80724428     1.55600
O151        O  0.67533222  0.20756334  0.87810769    -0.77500
C152        C  0.65116292  0.07703823  0.84191469     0.98400
C153        C  0.57506750  0.15308106  0.84230713     0.93300
O154        O  0.58924649  0.17829821  0.85414430    -0.82800
O155        O  0.64027617  0.33165528  0.58092493    -0.82300
C156        C  0.70851826  0.38315154  0.68690145     0.97100
O157        O  0.71420322  0.37167121  0.65861430    -0.71400
O158        O  0.70556508  0.33193486  0.60878474    -0.75000
Al159      Al  0.68762930  0.37491609  0.62066767     1.49000
C160        C  0.69844012  0.30302497  0.61890403     0.92300
O161        O  0.61902176  0.30594875  0.66946773    -0.81200
O162        O  0.59078062  0.37024841  0.66901787    -0.74800
Al163      Al  0.63181043  0.32314502  0.62672924     1.90100
O164        O  0.64194333  0.34084140  0.70381996    -0.73800
O165        O  0.63052598  0.41988577  0.65563668    -0.73700
O166        O  0.67953914  0.39245055  0.69448810    -0.79300
O167        O  0.67757440  0.42093294  0.62860940    -0.77600
O168        O  0.65205483  0.35924435  0.64158968    -1.13700
O169        O  0.66517360  0.37974028  0.57980263    -0.72900
C170        C  0.65107186  0.35631236  0.56492334     0.97800
C171        C  0.62992255  0.31272585  0.69797269     0.94200
Al172      Al  0.63686130  0.37924978  0.67769850     1.55600
O173        O  0.67026059  0.29724825  0.63101811    -0.77500
C174        C  0.65236725  0.43582482  0.64002784     0.98400
C175        C  0.57552477  0.35984207  0.64370279     0.93300
O176        O  0.59114782  0.34532869  0.62101244    -0.82800
O177        O  0.16783016  0.91599517  0.62780400    -0.82300
C178        C  0.12791508  0.80106249  0.69696550     0.97100
O179        O  0.12019442  0.83047042  0.70376953    -0.71400
O180        O  0.17318285  0.86673400  0.71144494    -0.75000
Al181      Al  0.13400779  0.87192393  0.68588883     1.49000
C182        C  0.20161165  0.87762259  0.70423273     0.92300
O183        O  0.21470208  0.83533633  0.63776385    -0.81200
O184        O  0.13151026  0.84228997  0.58850181    -0.74800
Al185      Al  0.18954930  0.87468778  0.63356459     1.90100
O186        O  0.17760014  0.80120229  0.61763556    -0.73800
O187        O  0.09125398  0.83125011  0.63815392    -0.73700
O188        O  0.13898049  0.79403485  0.66865592    -0.79300
O189        O  0.09269782  0.87855117  0.66431284    -0.77600
O190        O  0.15317108  0.85559983  0.64972814    -1.13700
O191        O  0.14345363  0.91710788  0.67614794    -0.72900
C192        C  0.15240865  0.93168927  0.64999142     0.97800
C193        C  0.20686130  0.80717884  0.62689302     0.94200
Al194      Al  0.13618023  0.82020508  0.62987315     1.55600
O195        O  0.20787775  0.88733413  0.67519754    -0.77500
C196        C  0.07678320  0.85685282  0.64848430     0.98400
C197        C  0.15451375  0.85687756  0.57307299     0.93300
O198        O  0.18004101  0.86620965  0.58835407    -0.82800
O199        O  0.34134609  0.91309532  0.87648988    -0.82300
C200        C  0.38108506  0.79756664  0.80725235     0.97100
O201        O  0.38927286  0.82697480  0.80071469    -0.71400
O202        O  0.33687011  0.86388090  0.79329836    -0.75000
Al203      Al  0.37611095  0.86830627  0.81896769     1.49000
C204        C  0.30843565  0.87472731  0.80044887     0.92300
O205        O  0.29541245  0.83120415  0.86699877    -0.81200
O206        O  0.37820646  0.83792691  0.91649502    -0.74800
Al207      Al  0.32032817  0.87094913  0.87122871     1.90100
O208        O  0.33223686  0.79707126  0.88716814    -0.73800
O209        O  0.41872167  0.82715327  0.86684964    -0.73700
O210        O  0.37084248  0.78993325  0.83578317    -0.79300
O211        O  0.41765332  0.87439231  0.84044097    -0.77600
O212        O  0.35683646  0.85190307  0.85514249    -1.13700
O213        O  0.36706687  0.91322175  0.82880227    -0.72900
C214        C  0.35646055  0.92857627  0.85379396     0.97800
C215        C  0.30320404  0.80265128  0.87714012     0.94200
Al216      Al  0.37367439  0.81613894  0.87493066     1.55600
O217        O  0.30195533  0.88349448  0.82965483    -0.77500
C218        C  0.43349241  0.85255400  0.85627541     0.98400
C219        C  0.35544509  0.85288005  0.93191811     0.93300
O220        O  0.33002772  0.86260941  0.91660849    -0.82800
O221        O  0.16566869  0.58767445  0.87486817    -0.82300
C222        C  0.12821782  0.69921630  0.79785891     0.97100
O223        O  0.12153364  0.66939821  0.79195153    -0.71400
O224        O  0.17314494  0.63095465  0.78930648    -0.75000
Al225      Al  0.13302454  0.62917146  0.81366227     1.49000
C226        C  0.20136372  0.62124577  0.79845181     0.92300
O227        O  0.21283024  0.66868830  0.86353658    -0.81200
O228        O  0.12846232  0.66605773  0.90966809    -0.74800
Al229      Al  0.18708470  0.62932154  0.86828443     1.90100
O230        O  0.17486600  0.70464049  0.87790364    -0.73800
O231        O  0.08918144  0.67292043  0.85872379    -0.73700
O232        O  0.13700720  0.70810633  0.82633480    -0.79300
O233        O  0.09034333  0.62516672  0.83351979    -0.77600
O234        O  0.15123836  0.64765727  0.84959054    -1.13700
O235        O  0.14071740  0.58494964  0.82690338    -0.72900
C236        C  0.15048981  0.57118544  0.85309664     0.97800
C237        C  0.20456234  0.69786356  0.87103113     0.94200
Al238      Al  0.13384116  0.68456954  0.86665903     1.55600
O239        O  0.20716119  0.61500346  0.82839506    -0.77500
C240        C  0.07444559  0.64750531  0.84846523     0.98400
C241        C  0.15032337  0.65138440  0.92647970     0.93300
O242        O  0.17564480  0.63959554  0.91261886    -0.82800
O243        O  0.33999782  0.59140383  0.62444814    -0.82300
C244        C  0.38047399  0.70265450  0.69895142     0.97100
O245        O  0.38834331  0.67291526  0.70476284    -0.71400
O246        O  0.33645715  0.63511100  0.71036032    -0.75000
Al247      Al  0.37529101  0.63200939  0.68436364     1.49000
C248        C  0.30810542  0.62433108  0.70319843     0.92300
O249        O  0.29460788  0.67170391  0.63946865    -0.81200
O250        O  0.37698480  0.66643810  0.58793974    -0.74800
Al251      Al  0.31916637  0.63244640  0.63272515     1.90100
O252        O  0.33141094  0.70622897  0.61949963    -0.73800
O253        O  0.41832866  0.67494470  0.63763882    -0.73700
O254        O  0.37056028  0.71084768  0.67052120    -0.79300
O255        O  0.41647866  0.62692363  0.66268426    -0.77600
O256        O  0.35600941  0.65025908  0.64913959    -1.13700
O257        O  0.36610069  0.58716967  0.67178826    -0.72900
C258        C  0.35490119  0.57403711  0.64569117     0.97800
C259        C  0.30210161  0.70006928  0.62875365     0.94200
Al260      Al  0.37303955  0.68652318  0.63050473     1.55600
O261        O  0.30129392  0.61715694  0.67367364    -0.77500
C262        C  0.43263155  0.64903672  0.64771726     0.98400
C263        C  0.35318258  0.65336263  0.57242122     0.93300
O264        O  0.32797665  0.64342835  0.58794577    -0.82800
O265        O  0.09232627  0.16871176  0.61838824    -0.82300
C266        C  0.20235158  0.12368757  0.69363353     0.97100
O267        O  0.17223484  0.11728627  0.69897491    -0.71400
O268        O  0.13833633  0.17212182  0.70274776    -0.75000
Al269      Al  0.13248067  0.13267664  0.67830164     1.49000
C270        C  0.13076988  0.20120497  0.69420135     0.92300
O271        O  0.17582379  0.20997086  0.62711096    -0.81200
O272        O  0.16864330  0.12578229  0.58289040    -0.74800
Al273      Al  0.13529443  0.18676320  0.62385835     1.90100
O274        O  0.21001289  0.17055302  0.61277882    -0.73800
O275        O  0.17367838  0.08656765  0.63410515    -0.73700
O276        O  0.21153997  0.13354246  0.66548453    -0.79300
O277        O  0.12492741  0.09115405  0.65782774    -0.77600
O278        O  0.15173608  0.14997767  0.64229134    -1.13700
O279        O  0.08817449  0.14400797  0.66651685    -0.72900
C280        C  0.07495398  0.15553592  0.64072824     0.97800
C281        C  0.20437028  0.20063087  0.61867383     0.94200
Al282      Al  0.18776602  0.13070485  0.62527547     1.55600
O283        O  0.12352187  0.20763895  0.66452205    -0.77500
C284        C  0.14682635  0.07376065  0.64387632     0.98400
C285        C  0.15479248  0.14799016  0.56589899     0.93300
O286        O  0.14387362  0.17394604  0.57934501    -0.82800
O287        O  0.41686564  0.34050943  0.62141043    -0.82300
C288        C  0.30020743  0.37869390  0.68998054     0.97100
O289        O  0.32970722  0.38611943  0.69674284    -0.71400
O290        O  0.36468227  0.33204033  0.70324232    -0.75000
Al291      Al  0.37090762  0.37211848  0.67916567     1.49000
C292        C  0.37575103  0.30394168  0.69520252     0.92300
O293        O  0.33542157  0.29356007  0.62677630    -0.81200
O294        O  0.34160940  0.37763687  0.58069876    -0.74800
Al295      Al  0.37488306  0.31897103  0.62495906     1.90100
O296        O  0.30042239  0.33108538  0.60934789    -0.73800
O297        O  0.33159210  0.41710338  0.63169980    -0.73700
O298        O  0.29297980  0.36864082  0.66137048    -0.79300
O299        O  0.37837893  0.41387795  0.65906400    -0.77600
O300        O  0.35515657  0.35455102  0.64198317    -1.13700
O301        O  0.41606378  0.36248183  0.67065621    -0.72900
C302        C  0.43192994  0.35383948  0.64529503     0.97800
C303        C  0.30691280  0.30137098  0.61652242     0.94200
Al304      Al  0.31969984  0.37222584  0.62238770     1.55600
O305        O  0.38622039  0.29901806  0.66623564    -0.77500
C306        C  0.35705841  0.43085274  0.64373777     0.98400
C307        C  0.35728565  0.35559116  0.56505647     0.93300
O308        O  0.36779245  0.33036168  0.58009337    -0.82800
O309        O  0.41514040  0.16387920  0.86862402    -0.82300
C310        C  0.30279699  0.12196339  0.79628723     0.97100
O311        O  0.33264915  0.11522244  0.79006393    -0.71400
O312        O  0.36722292  0.16973502  0.78463890    -0.75000
Al313      Al  0.37327531  0.12988965  0.80912869     1.49000
C314        C  0.37665521  0.19830423  0.79300601     0.92300
O315        O  0.33335565  0.20751977  0.85932616    -0.81200
O316        O  0.34080461  0.12362314  0.90620236    -0.74800
Al317      Al  0.37317289  0.18364040  0.86313972     1.90100
O318        O  0.29923267  0.16915693  0.87695378    -0.73800
O319        O  0.33299372  0.08432536  0.85549790    -0.73700
O320        O  0.29460723  0.13162314  0.82478917    -0.79300
O321        O  0.38072391  0.08816785  0.82949033    -0.77600
O322        O  0.35553644  0.14723530  0.84564238    -1.13700
O323        O  0.41813925  0.14068494  0.81973204    -0.72900
C324        C  0.43196801  0.15129685  0.84561460     0.97800
C325        C  0.30505090  0.19888086  0.86929099     0.94200
Al326      Al  0.31996285  0.12865421  0.86427347     1.55600
O327        O  0.38575238  0.20375855  0.82229163    -0.77500
C328        C  0.35917858  0.07116316  0.84457985     0.98400
C329        C  0.35492455  0.14626576  0.92235031     0.93300
O330        O  0.36445530  0.17227311  0.90794814    -0.82800
O331        O  0.09337009  0.33599195  0.87124605    -0.82300
C332        C  0.20598716  0.37804778  0.79856677     0.97100
O333        O  0.17628950  0.38628846  0.79331778    -0.71400
O334        O  0.14088909  0.33256633  0.78695788    -0.75000
Al335      Al  0.13567060  0.37158458  0.81262373     1.49000
C336        C  0.13167790  0.30369059  0.79475496     0.92300
O337        O  0.17527239  0.29207813  0.86130820    -0.81200
O338        O  0.16900857  0.37571972  0.90807232    -0.74800
Al339      Al  0.13560281  0.31632743  0.86540601     1.90100
O340        O  0.20975928  0.32955530  0.87927698    -0.73800
O341        O  0.17818597  0.41509712  0.85761432    -0.73700
O342        O  0.21458282  0.36684625  0.82643796    -0.79300
O343        O  0.12899014  0.41255453  0.83485417    -0.77600
O344        O  0.15360888  0.35278734  0.84822449    -1.13700
O345        O  0.09087654  0.36102425  0.82325145    -0.72900
C346        C  0.07673579  0.34978899  0.84875851     0.97800
C347        C  0.20370796  0.30006470  0.87129768     0.94200
Al348      Al  0.18982008  0.37036139  0.86634795     1.55600
O349        O  0.12327541  0.29721668  0.82414031    -0.77500
C350        C  0.15135475  0.42887080  0.84944309     0.98400
C351        C  0.15391542  0.35366894  0.92435845     0.93300
O352        O  0.14428486  0.32752908  0.91032554    -0.82800
O353        O  0.91835388  0.87685508  0.33627975    -0.82300
C354        C  0.80367571  0.80737980  0.37800682     0.97100
O355        O  0.83329404  0.80094351  0.38534347    -0.71400
O356        O  0.86991973  0.79279807  0.33242458    -0.75000
Al357      Al  0.87445379  0.81907522  0.37140316     1.49000
C358        C  0.88071848  0.79987561  0.30393644     0.92300
O359        O  0.83689056  0.86684474  0.29057536    -0.81200
O360        O  0.84313203  0.91655959  0.37285855    -0.74800
Al361      Al  0.87652506  0.87109700  0.31539751     1.90100
O362        O  0.80253576  0.88653424  0.32754330    -0.73800
O363        O  0.83307501  0.86694972  0.41339302    -0.73700
O364        O  0.79611213  0.83548123  0.36662151    -0.79300
O365        O  0.88058979  0.84094794  0.41261829    -0.77600
O366        O  0.85765752  0.85504119  0.35193433    -1.13700
O367        O  0.91941378  0.82914367  0.36193303    -0.72900
C368        C  0.93422180  0.85462374  0.35148658     0.97800
C369        C  0.80852635  0.87751866  0.29835022     0.94200
Al370      Al  0.82184718  0.87470245  0.36875035     1.55600
O371        O  0.88915892  0.82925602  0.29729771    -0.77500
C372        C  0.85839574  0.85649459  0.42825845     0.98400
C373        C  0.85748808  0.93208222  0.34981915     0.93300
O374        O  0.86796435  0.91658169  0.32481930    -0.82800
O375        O  0.91919533  0.62849093  0.16017282    -0.82300
C376        C  0.80600176  0.70293467  0.12331147     0.97100
O377        O  0.83561131  0.70835196  0.11497008    -0.71400
O378        O  0.87262564  0.71289176  0.16794078    -0.75000
Al379      Al  0.87639188  0.68848285  0.12786179     1.49000
C380        C  0.88266098  0.70427370  0.19627557     0.92300
O381        O  0.83810414  0.63741026  0.20689671    -0.81200
O382        O  0.84199940  0.59305835  0.12177954    -0.74800
Al383      Al  0.87744665  0.63383480  0.18146823     1.90100
O384        O  0.80294800  0.62105163  0.16935134    -0.73800
O385        O  0.83285425  0.64473360  0.08395182    -0.73700
O386        O  0.79759844  0.67470247  0.13376214    -0.79300
O387        O  0.88180699  0.66798587  0.08571182    -0.77600
O388        O  0.85873306  0.65227217  0.14594560    -1.13700
O389        O  0.92111225  0.67716698  0.13661521    -0.72900
C390        C  0.93550127  0.65112174  0.14604315     0.97800
C391        C  0.80929384  0.62835210  0.19890543     0.94200
Al392      Al  0.82205101  0.63485826  0.12864101     1.55600
O393        O  0.89053971  0.67452953  0.20190955    -0.77500
C394        C  0.85895130  0.65416424  0.06946004     0.98400
C395        C  0.85645432  0.57582891  0.14343302     0.93300
O396        O  0.86806650  0.58912881  0.16917881    -0.82800
O397        O  0.59651122  0.88415816  0.15991720    -0.82300
C398        C  0.70799744  0.80794909  0.12182595     0.97100
O399        O  0.67840852  0.80300664  0.11324611    -0.71400
O400        O  0.64171704  0.79860936  0.16622655    -0.75000
Al401      Al  0.63812851  0.82368160  0.12654933     1.49000
C402        C  0.63210181  0.80688136  0.19475312     0.92300
O403        O  0.67770516  0.87238730  0.20555014    -0.81200
O404        O  0.67399949  0.91877030  0.12106139    -0.74800
Al405      Al  0.63836161  0.87738192  0.18064659     1.90100
O406        O  0.71305703  0.88912321  0.16805175    -0.73800
O407        O  0.68203308  0.86748863  0.08239631    -0.73700
O408        O  0.71697569  0.83611138  0.13177821    -0.79300
O409        O  0.63283963  0.84482018  0.08487263    -0.77600
O410        O  0.65651652  0.85930159  0.14472633    -1.13700
O411        O  0.59380952  0.83592230  0.13580258    -0.72900
C412        C  0.57979052  0.86192231  0.14583049     0.97800
C413        C  0.70660534  0.88118970  0.19751918     0.94200
Al414      Al  0.69335230  0.87643909  0.12722613     1.55600
O415        O  0.62435992  0.83657776  0.20058682    -0.77500
C416        C  0.65565290  0.85839299  0.06829384     0.98400
C417        C  0.65975309  0.93569880  0.14304680     0.93300
O418        O  0.64868011  0.92197622  0.16892011    -0.82800
O419        O  0.59387744  0.62912486  0.33219011    -0.82300
C420        C  0.70386751  0.70501082  0.37537097     0.97100
O421        O  0.67376752  0.71015202  0.38166790    -0.71400
O422        O  0.63984174  0.71424653  0.32680335    -0.75000
Al423      Al  0.63428570  0.68952381  0.36647224     1.49000
C424        C  0.63119635  0.70585308  0.29801412     0.92300
O425        O  0.67678398  0.63910045  0.28916435    -0.81200
O426        O  0.67126450  0.59388726  0.37322659    -0.74800
Al427      Al  0.63646965  0.63518786  0.31290445     1.90100
O428        O  0.71148819  0.62475748  0.32821822    -0.73800
O429        O  0.67585692  0.64532748  0.41212869    -0.73700
O430        O  0.71331947  0.67711066  0.36528719    -0.79300
O431        O  0.62705379  0.66880644  0.40819428    -0.77600
O432        O  0.65345236  0.65359658  0.34924525    -1.13700
O433        O  0.59021854  0.67771782  0.35540960    -0.72900
C434        C  0.57668239  0.65147021  0.34548085     0.97800
C435        C  0.70557793  0.63111316  0.29829910     0.94200
Al436      Al  0.68974397  0.63670635  0.36815767     1.46000
O437        O  0.62388613  0.67605146  0.29205501    -0.77500
C438        C  0.64931834  0.65522497  0.42546235     0.98400
C439        C  0.65708650  0.57705332  0.35121090     0.93300
O440        O  0.64557188  0.59056457  0.32551764    -0.82800
O441        O  0.63100939  0.09504158  0.15704194    -0.82300
C442        C  0.69965954  0.20942147  0.11583945     0.97100
O443        O  0.70601556  0.18019132  0.10697185    -0.71400
O444        O  0.71423893  0.14526871  0.16040808    -0.75000
Al445      Al  0.68850144  0.13889822  0.12190804     1.49000
C446        C  0.70749700  0.13456382  0.18890126     0.92300
O447        O  0.64026425  0.17660231  0.20160988    -0.81200
O448        O  0.59078415  0.16844240  0.11889206    -0.74800
Al449      Al  0.63637699  0.13692644  0.17737483     1.90100
O450        O  0.61952274  0.21039974  0.16473818    -0.73800
O451        O  0.64074369  0.17867380  0.07788385    -0.73700
O452        O  0.67111387  0.21666233  0.12622640    -0.79300
O453        O  0.66676205  0.13113114  0.08144629    -0.77600
O454        O  0.65219033  0.15540803  0.14071324    -1.13700
O455        O  0.67945424  0.09368953  0.13271719    -0.72900
C456        C  0.65391487  0.07889537  0.14326545     0.97800
C457        C  0.62861315  0.20455398  0.19414191     0.94200
Al458      Al  0.63216660  0.19061842  0.12322020     1.55600
O459        O  0.67842043  0.12502478  0.19563664    -0.77500
C460        C  0.65193648  0.15268744  0.06444608     0.98400
C461        C  0.57551178  0.15399444  0.14209628     0.93300
O462        O  0.59098335  0.14488737  0.16761350    -0.82800
O463        O  0.63547329  0.41976042  0.33047137    -0.82300
C464        C  0.70034578  0.30155099  0.36848016     0.97100
O465        O  0.70729739  0.33035893  0.37824896    -0.71400
O466        O  0.71674719  0.36709220  0.32598807    -0.75000
Al467      Al  0.69099444  0.37259271  0.36489018     1.49000
C468        C  0.71007492  0.37811182  0.29755622     0.92300
O469        O  0.64101579  0.33847399  0.28341458    -0.81200
O470        O  0.59301161  0.34558654  0.36703531    -0.74800
Al471      Al  0.63902756  0.37782696  0.30915099     1.90100
O472        O  0.62006243  0.30448666  0.32016171    -0.73800
O473        O  0.64270273  0.33197343  0.40682639    -0.73700
O474        O  0.67185002  0.29526422  0.35737435    -0.79300
O475        O  0.66914158  0.37936980  0.40610956    -0.77600
O476        O  0.65440229  0.35770969  0.34527325    -1.13700
O477        O  0.68334083  0.41812193  0.35578281    -0.72900
C478        C  0.65890397  0.43437320  0.34512578     0.97800
C479        C  0.62903967  0.31059172  0.29088320     0.94200
Al480      Al  0.63359072  0.32236160  0.36160579     1.55600
O481        O  0.68127407  0.38842060  0.29103544    -0.77500
C482        C  0.65377179  0.35706004  0.42176858     0.98400
C483        C  0.57806742  0.36140611  0.34454807     0.93300
O484        O  0.59360966  0.37128053  0.31932876    -0.82800
O485        O  0.87978131  0.09195796  0.32794598    -0.82300
C486        C  0.80699205  0.20504124  0.36718694     0.97100
O487        O  0.80092620  0.17551488  0.37560066    -0.71400
O488        O  0.79654768  0.13909923  0.32312613    -0.75000
Al489      Al  0.82083651  0.13447448  0.36256908     1.49000
C490        C  0.80488274  0.13099058  0.29426421     0.92300
O491        O  0.87378988  0.17451977  0.28461926    -0.81200
O492        O  0.91650180  0.16777740  0.37016508    -0.74800
Al493      Al  0.87567171  0.13451617  0.30881807     1.90100
O494        O  0.89010285  0.20851935  0.32299212    -0.73800
O495        O  0.86419161  0.17706314  0.40742753    -0.73700
O496        O  0.83554398  0.21306172  0.35730112    -0.79300
O497        O  0.84117246  0.12816064  0.40426868    -0.77600
O498        O  0.85733042  0.15227727  0.34479687    -1.13700
O499        O  0.83192109  0.08945843  0.35337560    -0.72900
C500        C  0.85750440  0.07541395  0.34222354     0.97800
C501        C  0.88386036  0.20272515  0.29309433     0.94200
Al502      Al  0.87504047  0.18841405  0.36298706     1.55600
O503        O  0.83465003  0.12378288  0.28763779    -0.77500
C504        C  0.85448745  0.15068609  0.42114180     0.98400
C505        C  0.93352972  0.15260837  0.34883394     0.93300
O506        O  0.92043172  0.14194862  0.32253900    -0.82800
O507        O  0.88130140  0.41593520  0.15674599    -0.82300
C508        C  0.80817703  0.30318498  0.11767160     0.97100
O509        O  0.80241747  0.33273899  0.10937289    -0.71400
O510        O  0.79751988  0.36925280  0.16181279    -0.75000
Al511      Al  0.82227977  0.37346753  0.12228907     1.49000
C512        C  0.80584363  0.37792237  0.19053908     0.92300
O513        O  0.87377819  0.33367178  0.20123493    -0.81200
O514        O  0.91761330  0.34003229  0.11576393    -0.74800
Al515      Al  0.87648084  0.37356358  0.17650017     1.90100
O516        O  0.89058828  0.29959079  0.16294520    -0.73800
O517        O  0.86572539  0.33020161  0.07820761    -0.73700
O518        O  0.83643653  0.29462209  0.12789901    -0.79300
O519        O  0.84310354  0.37928506  0.08023125    -0.77600
O520        O  0.85837299  0.35556844  0.14049918    -1.13700
O521        O  0.83351473  0.41818590  0.13159388    -0.72900
C522        C  0.85895676  0.43252325  0.14264742     0.97800
C523        C  0.88364385  0.30537976  0.19271670     0.94200
Al524      Al  0.87610236  0.31930186  0.12268640     1.55600
O525        O  0.83557669  0.38516763  0.19698793    -0.77500
C526        C  0.85658106  0.35633765  0.06383883     0.98400
C527        C  0.93447651  0.35487048  0.13740580     0.93300
O528        O  0.92115592  0.36550232  0.16357762    -0.82800
O529        O  0.16753730  0.09083708  0.36942479    -0.82300
C530        C  0.13136358  0.20573026  0.29718006     0.97100
O531        O  0.12160475  0.17657875  0.29164029    -0.71400
O532        O  0.17287193  0.13758410  0.28514735    -0.75000
Al533      Al  0.13364194  0.13494185  0.31097364     1.49000
C534        C  0.20126304  0.12714963  0.29301764     0.92300
O535        O  0.21547641  0.17110955  0.35900080    -0.81200
O536        O  0.13116102  0.16757317  0.40687585    -0.74800
Al537      Al  0.18925917  0.13224062  0.36352191     1.90100
O538        O  0.17916962  0.20624470  0.37807570    -0.73800
O539        O  0.09210012  0.17920874  0.35632765    -0.73700
O540        O  0.14237736  0.21332552  0.32537886    -0.79300
O541        O  0.09196060  0.13058760  0.33287018    -0.77600
O542        O  0.15340546  0.15172624  0.34659565    -1.13700
O543        O  0.14168665  0.08978194  0.32196755    -0.72900
C544        C  0.15248992  0.07489126  0.34719652     0.97800
C545        C  0.20832412  0.19975701  0.36897977     0.94200
Al546      Al  0.13747817  0.18841236  0.36510427     1.55600
O547        O  0.20776962  0.11906350  0.32242601    -0.77500
C548        C  0.07661348  0.15374454  0.34719591     0.98400
C549        C  0.15308865  0.15220282  0.42302428     0.93300
O550        O  0.17863974  0.14142414  0.40849485    -0.82800
O551        O  0.17057033  0.41800370  0.11871181    -0.82300
C552        C  0.13049980  0.30641223  0.19382645     0.97100
O553        O  0.12208085  0.33601927  0.19930046    -0.71400
O554        O  0.17466626  0.37345349  0.20393382    -0.75000
Al555      Al  0.13509203  0.37689457  0.17861889     1.49000
C556        C  0.20353778  0.38232136  0.19567634     0.92300
O557        O  0.21487829  0.33634027  0.12996041    -0.81200
O558        O  0.13032386  0.34247979  0.08354106    -0.74800
Al559      Al  0.19035379  0.37608500  0.12526685     1.90100
O560        O  0.17679279  0.30208603  0.11248762    -0.73800
O561        O  0.09157456  0.33348177  0.13438047    -0.73700
O562        O  0.14029960  0.29794422  0.16543844    -0.79300
O563        O  0.09306738  0.38227894  0.15739331    -0.77600
O564        O  0.15381553  0.35851915  0.14306745    -1.13700
O565        O  0.14437589  0.42158532  0.16611739    -0.72900
C566        C  0.15606201  0.43504091  0.14038515     0.97800
C567        C  0.20645640  0.30800074  0.12018121     0.94200
Al568      Al  0.13616531  0.32217198  0.12547409     1.55600
O569        O  0.20986741  0.38936032  0.16595459    -0.77500
C570        C  0.07702521  0.35962868  0.14311296     0.98400
C571        C  0.15255015  0.35688439  0.06685568     0.93300
O572        O  0.17888831  0.36662842  0.08055433    -0.82800
O573        O  0.34162842  0.09178708  0.12056488    -0.82300
C574        C  0.38299573  0.20693769  0.18914480     0.97100
O575        O  0.38927051  0.17723784  0.19598144    -0.71400
O576        O  0.33577838  0.14179795  0.20366219    -0.75000
Al577      Al  0.37498686  0.13622930  0.17840087     1.49000
C578        C  0.30769106  0.12994481  0.19687366     0.92300
O579        O  0.29452497  0.17225975  0.13016499    -0.81200
O580        O  0.37698997  0.16605684  0.08050836    -0.74800
Al581      Al  0.31977579  0.13308554  0.12607196     1.90100
O582        O  0.33137957  0.20720643  0.11086621    -0.73800
O583        O  0.41849705  0.17580748  0.12916004    -0.73700
O584        O  0.37192178  0.21441345  0.16090379    -0.79300
O585        O  0.41617317  0.12923811  0.15720102    -0.77600
O586        O  0.35614827  0.15246407  0.14204808    -1.13700
O587        O  0.36522020  0.09124983  0.16929461    -0.72900
C588        C  0.35641720  0.07636427  0.14340727     0.97800
C589        C  0.30196467  0.20075419  0.11974160     0.94200
Al590      Al  0.37327038  0.18785641  0.12194690     1.55600
O591        O  0.30160162  0.12019192  0.16788060    -0.77500
C592        C  0.43245574  0.15036011  0.14085107     0.98400
C593        C  0.35433517  0.15092811  0.06529222     0.93300
O594        O  0.32884833  0.14143067  0.08061206    -0.82800
O595        O  0.34285411  0.41351566  0.37200400    -0.82300
C596        C  0.38530160  0.30601349  0.29258067     0.97100
O597        O  0.39076856  0.33627054  0.28750266    -0.71400
O598        O  0.33619733  0.37058586  0.28572716    -0.75000
Al599      Al  0.37629009  0.37530261  0.30961536     1.49000
C600        C  0.30762728  0.37927233  0.29495873     0.92300
O601        O  0.29997612  0.33128572  0.35956752    -0.81200
O602        O  0.38420494  0.33692162  0.40494652    -0.74800
Al603      Al  0.32340315  0.37141065  0.36475431     1.90100
O604        O  0.33926859  0.29649899  0.37330685    -0.73800
O605        O  0.42338051  0.33367024  0.35362770    -0.73700
O606        O  0.37696459  0.29599088  0.32095105    -0.79300
O607        O  0.41820225  0.38204333  0.32930768    -0.77600
O608        O  0.35980643  0.35520804  0.34550275    -1.13700
O609        O  0.36563560  0.41913188  0.32317526    -0.72900
C610        C  0.35602901  0.43153627  0.35014778     0.97800
C611        C  0.30921170  0.30239019  0.36700269     0.94200
Al612      Al  0.37935288  0.31894294  0.36179242     1.55600
O613        O  0.30216612  0.38569304  0.32496674    -0.77500
C614        C  0.43571711  0.36068682  0.34387146     0.98400
C615        C  0.36197974  0.35047135  0.42215700     0.93300
O616        O  0.33577433  0.36096337  0.40887830    -0.82800
O617        O  0.17002179  0.63395664  0.08523734    -0.82300
C618        C  0.12950298  0.70183637  0.20089554     0.97100
O619        O  0.12238423  0.70908107  0.17141366    -0.71400
O620        O  0.17619329  0.71584656  0.13661479    -0.75000
Al621      Al  0.13680948  0.69161648  0.12997887     1.49000
C622        C  0.20465594  0.70861313  0.12606529     0.92300
O623        O  0.21573052  0.64055404  0.16681779    -0.81200
O624        O  0.13168737  0.59375403  0.15891117    -0.74800
Al625      Al  0.19099648  0.63804853  0.12711292     1.90100
O626        O  0.17805967  0.62152586  0.20086978    -0.73800
O627        O  0.09196002  0.64396441  0.16905754    -0.73700
O628        O  0.13994094  0.67323333  0.20780345    -0.79300
O629        O  0.09538780  0.67126631  0.12216660    -0.77600
O630        O  0.15476115  0.65466220  0.14605446    -1.13700
O631        O  0.14706670  0.68291742  0.08459003    -0.72900
C632        C  0.15596227  0.65707423  0.06953685     0.97800
C633        C  0.20776107  0.62975821  0.19502003     0.94200
Al634      Al  0.13683755  0.63474713  0.18114857     1.55600
O635        O  0.21061510  0.67974329  0.11573990    -0.77500
C636        C  0.07845579  0.65580565  0.14341295     0.98400
C637        C  0.15410408  0.57795033  0.14403667     0.93300
O638        O  0.17997242  0.59273905  0.13442376    -0.82800
O639        O  0.34026118  0.62682923  0.41301855    -0.82300
C640        C  0.37891280  0.70195348  0.30020851     0.97100
O641        O  0.38652629  0.70764515  0.32996314    -0.71400
O642        O  0.33542258  0.71145594  0.36928951    -0.75000
Al643      Al  0.37505758  0.68658774  0.37092337     1.49000
C644        C  0.30684136  0.70316799  0.37889612     0.92300
O645        O  0.29471374  0.63672397  0.33156553    -0.81200
O646        O  0.37989146  0.59146150  0.33604836    -0.74800
Al647      Al  0.32006999  0.63271257  0.37104857     1.90100
O648        O  0.33266506  0.62041569  0.29658679    -0.73800
O649        O  0.41866415  0.64271345  0.32634614    -0.73700
O650        O  0.36897431  0.67358948  0.29187537    -0.79300
O651        O  0.41721668  0.66628921  0.37485388    -0.77600
O652        O  0.35626584  0.65090500  0.35281799    -1.13700
O653        O  0.36751500  0.67375321  0.41566073    -0.72900
C654        C  0.35564392  0.64838414  0.42948373     0.97800
C655        C  0.30291717  0.62749309  0.30296328     0.94200
Al656      Al  0.37357032  0.63351445  0.31603806     1.55600
O657        O  0.30019259  0.67320534  0.38436122    -0.77500
C658        C  0.43338723  0.65294158  0.35181578     0.98400
C659        C  0.35812318  0.57443789  0.35073226     0.93300
O660        O  0.33214261  0.58805896  0.36166253    -0.82800
O661        O  0.16878044  0.88004501  0.41341546    -0.82300
C662        C  0.13065394  0.80284293  0.30275173     0.97100
O663        O  0.12476836  0.79661203  0.33274176    -0.71400
O664        O  0.17642965  0.79437761  0.37073374    -0.75000
Al665      Al  0.13627683  0.81829198  0.37298610     1.49000
C666        C  0.20464936  0.80344894  0.38035116     0.92300
O667        O  0.21510673  0.86838746  0.33283950    -0.81200
O668        O  0.13059637  0.91451613  0.33662889    -0.74800
Al669      Al  0.18987915  0.87323280  0.37209523     1.90100
O670        O  0.17696781  0.88344085  0.29725104    -0.73800
O671        O  0.09098310  0.86368636  0.33002942    -0.73700
O672        O  0.13870073  0.83162517  0.29375605    -0.79300
O673        O  0.09380990  0.83733759  0.37739146    -0.77600
O674        O  0.15386422  0.85446605  0.35424901    -1.13700
O675        O  0.14404063  0.83182565  0.41742213    -0.72900
C676        C  0.15398909  0.85837003  0.43044337     0.97800
C677        C  0.20678219  0.87666938  0.30392508     0.94200
Al678      Al  0.13582922  0.87182450  0.31768835     1.55600
O679        O  0.21020408  0.83335152  0.38692899    -0.77500
C680        C  0.07717818  0.85204460  0.35552270     0.98400
C681        C  0.15280077  0.93140401  0.35059379     0.93300
O682        O  0.17857578  0.91761041  0.36143278    -0.82800
O683        O  0.34384667  0.88019972  0.09136380    -0.82300
C684        C  0.38520441  0.81033911  0.20535488     0.97100
O685        O  0.39339362  0.80386918  0.17591540    -0.71400
O686        O  0.34026125  0.79641847  0.14032892    -0.75000
Al687      Al  0.37915342  0.82207203  0.13465000     1.49000
C688        C  0.31175958  0.80388652  0.13006311     0.92300
O689        O  0.29990140  0.87000259  0.17338277    -0.81200
O690        O  0.38300705  0.91899903  0.16437311    -0.74800
Al691      Al  0.32380570  0.87444663  0.13349743     1.90100
O692        O  0.33711422  0.89053396  0.20680935    -0.73800
O693        O  0.42365618  0.86946951  0.17469998    -0.73700
O694        O  0.37549938  0.83896584  0.21299835    -0.79300
O695        O  0.41994093  0.84350063  0.12727610    -0.77600
O696        O  0.36058890  0.85820539  0.15156811    -1.13700
O697        O  0.36890251  0.83210498  0.08953601    -0.72900
C698        C  0.35826956  0.85776397  0.07513033     0.97800
C699        C  0.30779614  0.88089053  0.20148337     0.94200
Al700      Al  0.37845614  0.87791564  0.18676428     1.55600
O701        O  0.30516757  0.83309735  0.12131651    -0.77500
C702        C  0.43692296  0.85843901  0.14864352     0.98400
C703        C  0.36002025  0.93433796  0.14975612     0.93300
O704        O  0.33377577  0.91953379  0.14169285    -0.82800
C705        C  0.23218686  0.87863403  0.27748363    -0.00600
C706        C  0.26460469  0.88826859  0.28563308    -0.12500
C707        C  0.28952201  0.89021108  0.26145968     0.01600
C708        C  0.28228370  0.88177952  0.22819090    -0.00700
C709        C  0.24967780  0.87236132  0.22021259    -0.12500
C710        C  0.22479005  0.87085901  0.24424379     0.01500
H711        H  0.27042487  0.89474974  0.31099183     0.14500
H712        H  0.24344499  0.86572986  0.19498777     0.14500
C713        C  0.19222839  0.86011173  0.23395349     0.36100
C714        C  0.32201518  0.90102689  0.27184421     0.36000
N715        N  0.16625702  0.85159230  0.22527705    -0.44200
N716        N  0.34793045  0.90994735  0.28029991    -0.44200
C717        C  0.38154990  0.72923217  0.27536312    -0.00600
C718        C  0.38606627  0.76190114  0.28667764    -0.12500
C719        C  0.38792726  0.78870956  0.26462668     0.01600
C720        C  0.38550677  0.78319262  0.23022859    -0.00700
C721        C  0.38153576  0.75059020  0.21888076    -0.12500
C722        C  0.37939652  0.72383355  0.24082729     0.01500
H723        H  0.38783510  0.76672339  0.31299819     0.14500
H724        H  0.37932374  0.74591867  0.19254878     0.14500
C725        C  0.37519846  0.69131930  0.22670969     0.36100
C726        C  0.39298095  0.82138064  0.27810560     0.36000
N727        N  0.37191032  0.66545659  0.21493007    -0.44200
N728        N  0.39711958  0.84748120  0.28907579    -0.44200
C729        C  0.23159414  0.77885372  0.38341878    -0.00600
C730        C  0.22351839  0.74621200  0.39207651    -0.12500
C731        C  0.24763739  0.72131680  0.39232291     0.01600
C732        C  0.28075658  0.72885967  0.38300263    -0.00700
C733        C  0.28898038  0.76193648  0.37590873    -0.12500
C734        C  0.26496995  0.78684048  0.37624827     0.01500
H735        H  0.19812570  0.74007665  0.39857417     0.14500
H736        H  0.31423670  0.76844484  0.36926121     0.14500
C737        C  0.27534120  0.81999095  0.36765877     0.36100
C738        C  0.23725574  0.68849230  0.40214061     0.36000
N739        N  0.28404633  0.84646846  0.36094510    -0.44200
N740        N  0.22880829  0.66229446  0.41020120    -0.44200
C741        C  0.28510145  0.77893114  0.12872435    -0.00600
C742        C  0.25243415  0.78961196  0.13411031    -0.12500
C743        C  0.22583803  0.76753124  0.13300655     0.01600
C744        C  0.23165482  0.73364696  0.12627520    -0.00700
C745        C  0.26447411  0.72309380  0.12055432    -0.12500
C746        C  0.29110384  0.74528034  0.12188141     0.01500
H747        H  0.24760826  0.81547248  0.13950154     0.14500
H748        H  0.26949846  0.69733393  0.11509074     0.14500
C749        C  0.32405594  0.73305891  0.11496701     0.36100
C750        C  0.19303661  0.78085794  0.13840326     0.36000
N751        N  0.35046877  0.72333685  0.10935168    -0.44200
N752        N  0.16685806  0.79179669  0.14268154    -0.44200
C753        C  0.12652011  0.72734641  0.22737165    -0.00600
C754        C  0.13732977  0.71941283  0.25949834    -0.12500
C755        C  0.13782570  0.74317227  0.28465758     0.01600
C756        C  0.12812821  0.77611164  0.27780249    -0.00700
C757        C  0.11630955  0.78389480  0.24611616    -0.12500
C758        C  0.11473367  0.75989538  0.22120857     0.01500
H759        H  0.14601059  0.69459788  0.26501515     0.14500
H760        H  0.10786022  0.80885737  0.24087795     0.14500
C761        C  0.10026500  0.76955927  0.18996654     0.36100
C762        C  0.14951220  0.73306341  0.31688468     0.36000
N763        N  0.08837084  0.77727959  0.16506477    -0.44200
N764        N  0.15866006  0.72449642  0.34264214    -0.44200
C765        C  0.23295536  0.62732923  0.22198527    -0.00600
C766        C  0.22238012  0.61878077  0.25419002    -0.12500
C767        C  0.24457320  0.61813345  0.28090916     0.01600
C768        C  0.27824533  0.62611864  0.27579386    -0.00700
C769        C  0.28903392  0.63368459  0.24362985    -0.12500
C770        C  0.26702202  0.63447411  0.21692111     0.01500
H771        H  0.19653536  0.61285426  0.25874519     0.14500
H772        H  0.31488439  0.63971079  0.23938519     0.14500
C773        C  0.28056655  0.64283752  0.18486724     0.36100
C774        C  0.23234403  0.60813656  0.31300736     0.36000
N775        N  0.29178775  0.64950049  0.15933338    -0.44200
N776        N  0.22259406  0.59993421  0.33869904    -0.44200
C777        C  0.36176202  0.53791186  0.35418767    -0.00600
C778        C  0.33973197  0.52081575  0.37525967    -0.12500
C779        C  0.33858718  0.48617264  0.37597814     0.01600
C780        C  0.35960126  0.46776896  0.35493688    -0.00700
C781        C  0.38320303  0.48475076  0.33568081    -0.12500
C782        C  0.38468009  0.51934159  0.33526848     0.01500
H783        H  0.32250641  0.53454685  0.39062085     0.14500
H784        H  0.40014761  0.47091935  0.32008339     0.14500
C785        C  0.40916677  0.53472095  0.31410368     0.36100
C786        C  0.31443975  0.47047919  0.39731331     0.36000
N787        N  0.42890020  0.54693592  0.29719535    -0.44200
N788        N  0.29517909  0.45789380  0.41449425    -0.44200
C789        C  0.36178754  0.04020134  0.14118905    -0.00600
C790        C  0.34188124  0.02167588  0.11966504    -0.12500
C791        C  0.34218192  0.98709506  0.12061938     0.01600
C792        C  0.36272389  0.97036816  0.14366071    -0.00700
C793        C  0.38470509  0.98885690  0.16307947    -0.12500
C794        C  0.38453156  0.02339970  0.16202425     0.01500
H795        H  0.32495253  0.03417731  0.10294707     0.14500
H796        H  0.40120070  0.97637883  0.18024077     0.14500
C797        C  0.40775973  0.04067890  0.18301864     0.36100
C798        C  0.32088125  0.96966695  0.09780833     0.36000
N799        N  0.42636662  0.05441367  0.19990560    -0.44200
N800        N  0.30380250  0.95577191  0.07950960    -0.44200
C801        C  0.38777664  0.23280187  0.21499493    -0.00600
C802        C  0.38017314  0.26589774  0.20741183    -0.12500
C803        C  0.38111209  0.29053427  0.23173721     0.01600
C804        C  0.38830874  0.28202528  0.26497517    -0.00700
C805        C  0.39752256  0.24938070  0.27226572    -0.12500
C806        C  0.39838956  0.22511439  0.24764178     0.01500
H807        H  0.37309510  0.27263236  0.18240362     0.14500
H808        H  0.40443548  0.24282001  0.29737989     0.14500
C809        C  0.41100805  0.19292440  0.25686919     0.36100
C810        C  0.37397396  0.32409346  0.22169794     0.36000
N811        N  0.42151393  0.16729876  0.26428636    -0.44200
N812        N  0.36880709  0.35097397  0.21321044    -0.44200
C813        C  0.15149345  0.54148655  0.13907793    -0.00600
C814        C  0.17843968  0.52492650  0.12430193    -0.12500
C815        C  0.17987453  0.49036213  0.12316160     0.01600
C816        C  0.15374635  0.47140410  0.13670155    -0.00700
C817        C  0.12602673  0.48775418  0.14979176    -0.12500
C818        C  0.12444750  0.52235490  0.15084289     0.01500
H819        H  0.19937434  0.53892219  0.11483081     0.14500
H820        H  0.10576563  0.47335153  0.15999470     0.14500
C821        C  0.09500592  0.53703068  0.16487691     0.36100
C822        C  0.20981344  0.47523612  0.11063657     0.36000
N823        N  0.07120889  0.54835594  0.17617824    -0.44200
N824        N  0.23396908  0.46324912  0.10085311    -0.44200
C825        C  0.23043091  0.38393146  0.22087763    -0.00600
C826        C  0.22202085  0.38168362  0.25455506    -0.12500
C827        C  0.24643404  0.38079120  0.27917465     0.01600
C828        C  0.28042450  0.38204201  0.27031509    -0.00700
C829        C  0.28880433  0.38518296  0.23677301    -0.12500
C830        C  0.26446813  0.38622927  0.21218468     0.01500
H831        H  0.19618473  0.38034739  0.26180328     0.14500
H832        H  0.31465132  0.38690579  0.22959944     0.14500
C833        C  0.27570123  0.38927248  0.17837551     0.36100
C834        C  0.23557838  0.37764735  0.31311264     0.36000
N835        N  0.28496412  0.39199271  0.15139783    -0.44200
N836        N  0.22674014  0.37525328  0.34027193    -0.44200
C837        C  0.27652093  0.22743721  0.11839378    -0.00600
C838        C  0.28693288  0.25988655  0.11084366    -0.12500
C839        C  0.26460536  0.28637796  0.11070140     0.01600
C840        C  0.23097154  0.28084839  0.11846028    -0.00700
C841        C  0.22025116  0.24845215  0.12523064    -0.12500
C842        C  0.24248300  0.22185356  0.12529477     0.01500
H843        H  0.31275741  0.26480168  0.10510902     0.14500
H844        H  0.19436440  0.24392093  0.13110699     0.14500
C845        C  0.22931182  0.18936230  0.13255413     0.36100
C846        C  0.27666060  0.31863097  0.10101200     0.36000
N847        N  0.21860977  0.16339484  0.13836192    -0.44200
N848        N  0.28633505  0.34435523  0.09284157    -0.44200
C849        C  0.14973036  0.96795232  0.35263368    -0.00600
C850        C  0.13155186  0.98453867  0.32813395    -0.12500
C851        C  0.13135590  0.01913632  0.32616161     0.01600
C852        C  0.14902552  0.03820035  0.34978543    -0.00700
C853        C  0.16583773  0.02147953  0.37530846    -0.12500
C854        C  0.16665958  0.98684475  0.37674358     0.01500
H855        H  0.11864923  0.97037438  0.30935923     0.14500
H856        H  0.17945226  0.03544319  0.39371272     0.14500
C857        C  0.18545525  0.97154597  0.40308805     0.36100
C858        C  0.11379331  0.03388713  0.29869483     0.36000
N859        N  0.20070483  0.95936838  0.42409154    -0.44200
N860        N  0.09995594  0.04555126  0.27646281    -0.44200
C861        C  0.23406192  0.22613679  0.36978508    -0.00600
C862        C  0.26767077  0.21732026  0.36682885    -0.12500
C863        C  0.29268672  0.24143123  0.36609246     0.01600
C864        C  0.28426403  0.27538318  0.36857599    -0.00700
C865        C  0.25073476  0.28411551  0.37158888    -0.12500
C866        C  0.22576966  0.26016999  0.37202337     0.01500
H867        H  0.27450640  0.19144765  0.36468428     0.14500
H868        H  0.24379752  0.30999486  0.37333895     0.14500
C869        C  0.19192181  0.27184369  0.37345851     0.36100
C870        C  0.32646374  0.23043690  0.36136314     0.36000
N871        N  0.16490160  0.28146497  0.37451625    -0.44200
N872        N  0.35346039  0.22148847  0.35746626    -0.44200
C873        C  0.22816533  0.12576645  0.26834860    -0.00600
C874        C  0.26005264  0.13527418  0.27836775    -0.12500
C875        C  0.28644068  0.13635871  0.25596612     0.01600
C876        C  0.28120655  0.12761594  0.22246746    -0.00700
C877        C  0.24929491  0.11704377  0.21281350    -0.12500
C878        C  0.22292395  0.11604092  0.23537198     0.01500
H879        H  0.26425190  0.14268242  0.30381758     0.14500
H880        H  0.24470234  0.10970030  0.18744856     0.14500
C881        C  0.19117025  0.10369157  0.22443415     0.36100
C882        C  0.31828930  0.14676737  0.26846421     0.36000
N883        N  0.16579493  0.09350320  0.21579349    -0.44200
N884        N  0.34365147  0.15513322  0.27887083    -0.44200
C885        C  0.12905661  0.28128096  0.22081917    -0.00600
C886        C  0.12694668  0.24768466  0.21228829    -0.12500
C887        C  0.12726268  0.22278006  0.23646832     0.01600
C888        C  0.12977628  0.23118214  0.27042149    -0.00700
C889        C  0.13178307  0.26482033  0.27895160    -0.12500
C890        C  0.13137820  0.28973322  0.25472654     0.01500
H891        H  0.12529420  0.24071390  0.18643986     0.14500
H892        H  0.13385766  0.27180674  0.30475651     0.14500
C893        C  0.13457564  0.32357753  0.26562840     0.36100
C894        C  0.12616341  0.18890164  0.22522762     0.36000
N895        N  0.13701900  0.35062865  0.27463178    -0.44200
N896        N  0.12525341  0.16183709  0.21598135    -0.44200
C897        C  0.97065452  0.35841363  0.13344367    -0.00600
C898        C  0.98628330  0.38702282  0.14543255    -0.12500
C899        C  0.02094889  0.38924919  0.14704477     0.01600
C900        C  0.04060680  0.36190795  0.13737795    -0.00700
C901        C  0.02468708  0.33428296  0.12323571    -0.12500
C902        C  0.99021819  0.33232461  0.12117821     0.01500
H903        H  0.97128165  0.40748165  0.15417700     0.14500
H904        H  0.03908512  0.31323900  0.11485557     0.14500
C905        C  0.97574207  0.30205108  0.10886205     0.36100
C906        C  0.03518941  0.41978045  0.15881460     0.36000
N907        N  0.96421581  0.27773173  0.09910782    -0.44200
N908        N  0.04611149  0.44457507  0.16803577    -0.44200
C909        C  0.96978512  0.14976460  0.35324963    -0.00600
C910        C  0.98678089  0.17675624  0.36672084    -0.12500
C911        C  0.02141653  0.17818610  0.36627061     0.01600
C912        C  0.03999283  0.15188287  0.35208232    -0.00700
C913        C  0.02279774  0.12376036  0.34083808    -0.12500
C914        C  0.98806069  0.12248118  0.34140303     0.01500
H915        H  0.97288146  0.19770709  0.37617960     0.14500
H916        H  0.03641970  0.10290853  0.33084770     0.14500
C917        C  0.97180700  0.09267178  0.33028634     0.36100
C918        C  0.03659801  0.20769639  0.37955007     0.36000
N919        N  0.95884955  0.06863336  0.32168083    -0.44200
N920        N  0.04847688  0.23146803  0.39020696    -0.44200
C921        C  0.88753189  0.22923033  0.26770276    -0.00600
C922        C  0.88329509  0.22073365  0.23431505    -0.12500
C923        C  0.88344665  0.24478196  0.20942538     0.01600
C924        C  0.88676681  0.27862813  0.21772654    -0.00700
C925        C  0.89229437  0.28712282  0.25089610    -0.12500
C926        C  0.89354913  0.26286426  0.27569962     0.01500
H927        H  0.87952690  0.19506677  0.22745602     0.14500
H928        H  0.89596710  0.31287872  0.25748054     0.14500
C929        C  0.90168325  0.27350924  0.30876900     0.36100
C930        C  0.87940998  0.23362786  0.17578742     0.36000
N931        N  0.90888876  0.28220328  0.33505034    -0.44200
N932        N  0.87662529  0.22422731  0.14893222    -0.44200
C933        C  0.54166289  0.36670551  0.34664758    -0.00600
C934        C  0.52433739  0.35350583  0.37385528    -0.12500
C935        C  0.48967835  0.35310484  0.37451554     0.01600
C936        C  0.47164458  0.36614802  0.34758144    -0.00700
C937        C  0.48870353  0.38192436  0.32181285    -0.12500
C938        C  0.52333260  0.38230633  0.32096157     0.01500
H939        H  0.53780377  0.34236185  0.39425036     0.14500
H940        H  0.47494677  0.39239651  0.30123119     0.14500
C941        C  0.53883063  0.39766900  0.29253917     0.36100
C942        C  0.47332707  0.33922041  0.40317157     0.36000
N943        N  0.55107842  0.40990058  0.26964871    -0.44200
N944        N  0.46042117  0.32822892  0.42630866    -0.44200
C945        C  0.77997917  0.22998969  0.36851481    -0.00600
C946        C  0.74685928  0.21910603  0.36663811    -0.12500
C947        C  0.72036917  0.24159317  0.36662078     0.01600
C948        C  0.72674073  0.27589850  0.36927431    -0.00700
C949        C  0.75983576  0.28662142  0.37156740    -0.12500
C950        C  0.78625968  0.26430590  0.37081350     0.01500
H951        H  0.74158003  0.19286955  0.36447849     0.14500
H952        H  0.76531107  0.31282161  0.37339965     0.14500
C953        C  0.81937843  0.27770908  0.37282225     0.36100
C954        C  0.68713263  0.22854543  0.36397782     0.36000
N955        N  0.84572766  0.28892949  0.37440772    -0.44200
N956        N  0.66056327  0.21792548  0.36176892    -0.44200
C957        C  0.73544052  0.37864282  0.27088713    -0.00600
C958        C  0.72464254  0.38377045  0.23814338    -0.12500
C959        C  0.74688670  0.38373757  0.21161754     0.01600
C960        C  0.78102607  0.37887036  0.21752302    -0.00700
C961        C  0.79194775  0.37393417  0.25018456    -0.12500
C962        C  0.76964427  0.37351677  0.27672946     0.01500
H963        H  0.69850165  0.38746786  0.23299720     0.14500
H964        H  0.81808555  0.36975912  0.25502146     0.14500
C965        C  0.78289096  0.36785491  0.30943912     0.36100
C966        C  0.73385515  0.38930407  0.17879122     0.36000
N967        N  0.79377276  0.36325227  0.33553029    -0.44200
N968        N  0.72332631  0.39368329  0.15251593    -0.44200
C969        C  0.46881020  0.14680151  0.13794999    -0.00600
C970        C  0.48594599  0.13318952  0.16484031    -0.12500
C971        C  0.52051720  0.13434258  0.16646171     0.01600
C972        C  0.53897392  0.14888796  0.14020598    -0.00700
C973        C  0.52172326  0.16044644  0.11221826    -0.12500
C974        C  0.48700335  0.15967692  0.11096015     0.01500
H975        H  0.47216950  0.12324492  0.18571412     0.14500
H976        H  0.53527304  0.17105331  0.09155471     0.14500
C977        C  0.47077504  0.17221240  0.08167211     0.36100
C978        C  0.53569210  0.12185517  0.19635785     0.36000
N979        N  0.45793248  0.18224573  0.05810551    -0.44200
N980        N  0.54756670  0.11209419  0.22054488    -0.44200
C981        C  0.72659420  0.23461212  0.11478019    -0.00600
C982        C  0.75838500  0.22467702  0.10410337    -0.12500
C983        C  0.78534035  0.24647876  0.10468653     0.01600
C984        C  0.78084000  0.27905393  0.11605554    -0.00700
C985        C  0.74919425  0.28934595  0.12609416    -0.12500
C986        C  0.72221376  0.26761925  0.12573024     0.01500
H987        H  0.76242784  0.19964826  0.09536918     0.14500
H988        H  0.74563611  0.31447020  0.13486708     0.14500
C989        C  0.69072749  0.28024421  0.13711212     0.36100
C990        C  0.81689657  0.23524396  0.09206562     0.36000
N991        N  0.66569172  0.29084883  0.14623940    -0.44200
N992        N  0.84206685  0.22625055  0.08163479    -0.44200
C993        C  0.73327723  0.13321807  0.21511295    -0.00600
C994        C  0.72302708  0.12675932  0.24778252    -0.12500
C995        C  0.74568850  0.12582524  0.27386199     0.01600
C996        C  0.77980481  0.13077328  0.26753599    -0.00700
C997        C  0.79021525  0.13706437  0.23492776    -0.12500
C998        C  0.76742523  0.13872808  0.20886386     0.01500
H999        H  0.69698284  0.12276602  0.25324140     0.14500
H1000       H  0.81627383  0.14153052  0.22983769     0.14500
C1001       C  0.78005585  0.14644070  0.17626765     0.36100
C1002       C  0.73300872  0.11938494  0.30670802     0.36000
N1003       N  0.79026186  0.15281386  0.15023415    -0.44200
N1004       N  0.72269637  0.11439198  0.33299096    -0.44200
C1005       C  0.62624027  0.23105350  0.21970941    -0.00600
C1006       C  0.61946294  0.26377145  0.20961059    -0.12500
C1007       C  0.61990346  0.29008956  0.23219042     0.01600
C1008       C  0.62654823  0.28390712  0.26588576    -0.00700
C1009       C  0.63169393  0.25114237  0.27631476    -0.12500
C1010       C  0.63178960  0.22488504  0.25381467     0.01500
H1011       H  0.61425601  0.26901479  0.18383276     0.14500
H1012       H  0.63653811  0.24605347  0.30221722     0.14500
C1013       C  0.63762028  0.19205310  0.26683935     0.36100
C1014       C  0.61266341  0.32301964  0.22027356     0.36000
N1015       N  0.64229804  0.16581220  0.27740981    -0.44200
N1016       N  0.60679450  0.34943565  0.21081128    -0.44200
C1017       C  0.54020662  0.64817450  0.34926534    -0.00600
C1018       C  0.52413825  0.66957059  0.37150342    -0.12500
C1019       C  0.48959827  0.67112410  0.37345283     0.01600
C1020       C  0.47005261  0.65008594  0.35352337    -0.00700
C1021       C  0.48611425  0.62753256  0.33238868    -0.12500
C1022       C  0.52075739  0.62659969  0.32982316     0.01500
H1023       H  0.53862725  0.68628552  0.38669220     0.14500
H1024       H  0.47150856  0.61123997  0.31686416     0.14500
C1025       C  0.53522753  0.60473052  0.30557048     0.36100
C1026       C  0.47535467  0.69646340  0.39421515     0.36000
N1027       N  0.54668371  0.58720405  0.28604654    -0.44200
N1028       N  0.46427215  0.71704636  0.41073676    -0.44200
C1029       C  0.65635978  0.54071520  0.35391837    -0.00600
C1030       C  0.68665536  0.52397524  0.35587955    -0.12500
C1031       C  0.68807540  0.48948243  0.35347868     0.01600
C1032       C  0.65846366  0.47092570  0.34927311    -0.00700
C1033       C  0.62798438  0.48784207  0.34854298    -0.12500
C1034       C  0.62676145  0.52244469  0.35100147     0.01500
H1035       H  0.70949730  0.53806757  0.35782487     0.14500
H1036       H  0.60504229  0.47403314  0.34614013     0.14500
C1037       C  0.59487832  0.53860378  0.35195736     0.36100
C1038       C  0.72053293  0.47428945  0.35361625     0.36000
N1039       N  0.56927026  0.55143204  0.35341394    -0.44200
N1040       N  0.74655420  0.46218239  0.35370937    -0.44200
C1041       C  0.54313423  0.86432427  0.14254600    -0.00600
C1042       C  0.52615199  0.83605712  0.13135309    -0.12500
C1043       C  0.49168651  0.83418952  0.13218889     0.01600
C1044       C  0.47309859  0.86118234  0.14409926    -0.00700
C1045       C  0.48962992  0.89022915  0.15360041    -0.12500
C1046       C  0.52438693  0.89222293  0.15250760     0.01500
H1047       H  0.53980517  0.81442403  0.12322254     0.14500
H1048       H  0.47534428  0.91129010  0.16217067     0.14500
C1049       C  0.53979788  0.92312845  0.16161075     0.36100
C1050       C  0.47636496  0.80312527  0.12326635     0.36000
N1051       N  0.55191445  0.94808995  0.16868301    -0.44200
N1052       N  0.46415507  0.77817819  0.11629234    -0.44200
C1053       C  0.65635180  0.97213345  0.13951623    -0.00600
C1054       C  0.63197847  0.98826157  0.15840689    -0.12500
C1055       C  0.62953511  0.02277725  0.15897503     0.01600
C1056       C  0.65213057  0.04222364  0.14044094    -0.00700
C1057       C  0.67559201  0.02600798  0.12037140    -0.12500
C1058       C  0.67794802  0.99144042  0.11976403     0.01500
H1059       H  0.61511361  0.97382040  0.17357629     0.14500
H1060       H  0.69296846  0.04039850  0.10570413     0.14500
C1061       C  0.70408733  0.97684971  0.10016067     0.36100
C1062       C  0.60441315  0.03712188  0.17999332     0.36000
N1063       N  0.72512555  0.96527326  0.08448989    -0.44200
N1064       N  0.58417628  0.04830852  0.19692612    -0.44200
C1065       C  0.63007841  0.78154527  0.22158015    -0.00600
C1066       C  0.62844131  0.74793318  0.21293379    -0.12500
C1067       C  0.62820474  0.72292914  0.23707292     0.01600
C1068       C  0.62967166  0.73125007  0.27110797    -0.00700
C1069       C  0.63080320  0.76491354  0.27970738    -0.12500
C1070       C  0.63107856  0.78990024  0.25558969     0.01500
H1071       H  0.62750382  0.74102962  0.18705348     0.14500
H1072       H  0.63168194  0.77190139  0.30552861     0.14500
C1073       C  0.63357495  0.82372322  0.26682058     0.36100
C1074       C  0.62731922  0.68906433  0.22576866     0.36000
N1075       N  0.63552317  0.85073989  0.27606396    -0.44200
N1076       N  0.62656891  0.66197891  0.21655120    -0.44200
C1077       C  0.86121569  0.46926980  0.14000260    -0.00600
C1078       C  0.83494103  0.48630891  0.12457994    -0.12500
C1079       C  0.83338273  0.52086882  0.12445517     0.01600
C1080       C  0.85876788  0.53944728  0.13966871    -0.00700
C1081       C  0.88567290  0.52267011  0.15400760    -0.12500
C1082       C  0.88722164  0.48801366  0.15428145     0.01500
H1083       H  0.81468038  0.47262588  0.11348039     0.14500
H1084       H  0.90535138  0.53673702  0.16566127     0.14500
C1085       C  0.91537018  0.47278726  0.17029559     0.36100
C1086       C  0.80415244  0.53631751  0.11067621     0.36000
N1087       N  0.93797809  0.46081054  0.18325978    -0.44200
N1088       N  0.78064090  0.54863710  0.09979573    -0.44200
C1089       C  0.97203859  0.64870911  0.14145943    -0.00600
C1090       C  0.98823078  0.67460640  0.12448053    -0.12500
C1091       C  0.02279580  0.67679266  0.12348684     0.01600
C1092       C  0.04214918  0.65240162  0.13940834    -0.00700
C1093       C  0.02614358  0.62544570  0.15454510    -0.12500
C1094       C  0.99151694  0.62322001  0.15558237     0.01500
H1095       H  0.97388621  0.69422912  0.11301331     0.14500
H1096       H  0.04079466  0.60643929  0.16654511     0.14500
C1097       C  0.97709520  0.59506201  0.17233066     0.36100
C1098       C  0.03732854  0.70579953  0.10829647     0.36000
N1099       N  0.96574841  0.57239244  0.18577193    -0.44200
N1100       N  0.04873979  0.72922394  0.09628691    -0.44200
C1101       C  0.73265703  0.62902661  0.27361357    -0.00600
C1102       C  0.72436783  0.62306181  0.24050322    -0.12500
C1103       C  0.74867957  0.62208671  0.21585460     0.01600
C1104       C  0.78253428  0.62689908  0.22420588    -0.00700
C1105       C  0.79080494  0.63246789  0.25748576    -0.12500
C1106       C  0.76638528  0.63382426  0.28204903     0.01500
H1107       H  0.69859127  0.61944071  0.23370068     0.14500
H1108       H  0.81646571  0.63661416  0.26438681     0.14500
C1109       C  0.77677224  0.64209003  0.31521257     0.36100
C1110       C  0.73753466  0.61726389  0.18224687     0.36000
N1111       N  0.78538576  0.64889862  0.34163589    -0.44200
N1112       N  0.72842386  0.61354454  0.15536779    -0.44200
C1113       C  0.78113049  0.73000327  0.12090037    -0.00600
C1114       C  0.74727941  0.72208920  0.12322577    -0.12500
C1115       C  0.72293412  0.74678252  0.12250085     0.01600
C1116       C  0.73233903  0.78051353  0.12022967    -0.00700
C1117       C  0.76605593  0.78838806  0.11732458    -0.12500
C1118       C  0.79032070  0.76371038  0.11711496     0.01500
H1119       H  0.73968289  0.69643373  0.12566011     0.14500
H1120       H  0.77357700  0.81407983  0.11498729     0.14500
C1121       C  0.82429780  0.77422353  0.11298356     0.36100
C1122       C  0.68868658  0.73650585  0.12489741     0.36000
N1123       N  0.85139144  0.78288480  0.10915978    -0.44200
N1124       N  0.66130700  0.72802088  0.12652888    -0.44200
C1125       C  0.97075222  0.85678682  0.35606798    -0.00600
C1126       C  0.98727902  0.82888273  0.36894109    -0.12500
C1127       C  0.02180848  0.82753734  0.37055838     0.01600
C1128       C  0.04080098  0.85438934  0.35872608    -0.00700
C1129       C  0.02453233  0.88298019  0.34740239    -0.12500
C1130       C  0.98980323  0.88469693  0.34661723     0.01500
H1131       H  0.97328843  0.80735969  0.37693459     0.14500
H1132       H  0.03904955  0.90401615  0.33901565     0.14500
C1133       C  0.97465851  0.91550352  0.33655071     0.36100
C1134       C  0.03694563  0.79739298  0.38257423     0.36000
N1135       N  0.96249663  0.94030759  0.32887170    -0.44200
N1136       N  0.04901443  0.77326998  0.39229758    -0.44200
C1137       C  0.86069049  0.96892150  0.35050193    -0.00600
C1138       C  0.87364513  0.98497496  0.32230215    -0.12500
C1139       C  0.87384303  0.01950497  0.31954783     0.01600
C1140       C  0.86070727  0.03902257  0.34531092    -0.00700
C1141       C  0.84889860  0.02330950  0.37400736    -0.12500
C1142       C  0.84924708  0.98871375  0.37707501     0.01500
H1143       H  0.88284375  0.97054019  0.30165810     0.14500
H1144       H  0.83934048  0.03818946  0.39419542     0.14500
C1145       C  0.83801244  0.97465299  0.40795696     0.36100
C1146       C  0.88581161  0.03405037  0.28909324     0.36000
N1147       N  0.82928687  0.96379828  0.43301308    -0.44200
N1148       N  0.89539021  0.04569732  0.26469056    -0.44200
C1149       C  0.77785080  0.78139665  0.38184329    -0.00600
C1150       C  0.74466233  0.78976156  0.37548520    -0.12500
C1151       C  0.71984280  0.76563378  0.37497431     0.01600
C1152       C  0.72823606  0.73196879  0.37970056    -0.00700
C1153       C  0.76095363  0.72375092  0.38796368    -0.12500
C1154       C  0.78553608  0.74806454  0.38996524     0.01500
H1155       H  0.73799714  0.81526183  0.37043306     0.14500
H1156       H  0.76732919  0.69816157  0.39311007     0.14500
C1157       C  0.81805084  0.73775713  0.40086598     0.36100
C1158       C  0.68624783  0.77634891  0.36879230     0.36000
N1159       N  0.84389898  0.72945644  0.41015207    -0.44200
N1160       N  0.65933445  0.78525629  0.36438338    -0.44200
C1161       C  0.73316683  0.88194728  0.22285261    -0.00600
C1162       C  0.72405002  0.88182259  0.25637261    -0.12500
C1163       C  0.74792079  0.88062657  0.28137698     0.01600
C1164       C  0.78206872  0.87971931  0.27303271    -0.00700
C1165       C  0.79120990  0.88016551  0.23954103    -0.12500
C1166       C  0.76732322  0.88121780  0.21453268     0.01500
H1167       H  0.69803178  0.88232797  0.26319461     0.14500
H1168       H  0.81724617  0.87945502  0.23274882     0.14500
C1169       C  0.77894632  0.88024168  0.18072549     0.36100
C1170       C  0.73621266  0.87911683  0.31515834     0.36000
N1171       N  0.78847859  0.87941905  0.15371637    -0.44200
N1172       N  0.72652469  0.87795151  0.34210685    -0.44200
C1173       C  0.88438866  0.72874246  0.22371531    -0.00600
C1174       C  0.88024041  0.71768369  0.25651385    -0.12500
C1175       C  0.87990030  0.73993134  0.28316335     0.01600
C1176       C  0.88302638  0.77436248  0.27727898    -0.00700
C1177       C  0.88828004  0.78514524  0.24449585    -0.12500
C1178       C  0.88945980  0.76283919  0.21805077     0.01500
H1179       H  0.87697148  0.69146857  0.26141576     0.14500
H1180       H  0.89160996  0.81128250  0.23929095     0.14500
C1181       C  0.89793421  0.77553350  0.18572390     0.36100
C1182       C  0.87748314  0.72636980  0.31613952     0.36000
N1183       N  0.90540975  0.78577795  0.16001656    -0.44200
N1184       N  0.87599677  0.71515125  0.34246792    -0.44200
C1185       C  0.14903962  0.35761324  0.96057792    -0.00600
C1186       C  0.16749785  0.38184307  0.97727877    -0.12500
C1187       C  0.16747848  0.38351725  0.01183477     0.01600
C1188       C  0.14887799  0.36036962  0.03053386    -0.00700
C1189       C  0.12817858  0.33811359  0.01382580    -0.12500
C1190       C  0.12794431  0.33660372  0.97928083     0.01500
H1191       H  0.18297704  0.39892586  0.96341559     0.14500
H1192       H  0.11306481  0.32077062  0.02778738     0.14500
C1193       C  0.10596734  0.31289112  0.96412449     0.36100
C1194       C  0.18677290  0.40934699  0.02718227     0.36000
N1195       N  0.08822718  0.29376479  0.95234650    -0.44200
N1196       N  0.20221383  0.43025214  0.03916272    -0.44200
C1197       C  0.35854868  0.14363078  0.95881534    -0.00600
C1198       C  0.33633175  0.12360340  0.97662918    -0.12500
C1199       C  0.33531712  0.12435527  0.01128037     0.01600
C1200       C  0.35688485  0.14571085  0.02892859    -0.00700
C1201       C  0.38059552  0.16392733  0.01108840    -0.12500
C1202       C  0.38177446  0.16295068  0.97653896     0.01500
H1203       H  0.31873503  0.10820713  0.96344422     0.14500
H1204       H  0.39775486  0.17992992  0.02406966     0.14500
C1205       C  0.40721987  0.18213593  0.96017244     0.36100
C1206       C  0.31164003  0.10305846  0.02771918     0.36000
N1207       N  0.42774812  0.19753574  0.94731636    -0.44200
N1208       N  0.29264674  0.08591682  0.04075266    -0.44200
C1209       C  0.27860876  0.22403586  0.87202235    -0.00600
C1210       C  0.28782567  0.25725414  0.87609008    -0.12500
C1211       C  0.26409918  0.28242395  0.87682009     0.01600
C1212       C  0.23004211  0.27451665  0.87330405    -0.00700
C1213       C  0.22084802  0.24113265  0.87004292    -0.12500
C1214       C  0.24459955  0.21600047  0.86938716     0.01500
H1215       H  0.31382616  0.26368971  0.87854778     0.14500
H1216       H  0.19490163  0.23451313  0.86747519     0.14500
C1217       C  0.23312056  0.18248887  0.86466789     0.36100
C1218       C  0.27592887  0.31595574  0.88041048     0.36000
N1219       N  0.22362629  0.15571857  0.86102679    -0.44200
N1220       N  0.28573818  0.34268837  0.88346480    -0.44200
C1221       C  0.36243657  0.35752875  0.52849663    -0.00600
C1222       C  0.37752069  0.33034517  0.51259562    -0.12500
C1223       C  0.37922902  0.32823331  0.47809259     0.01600
C1224       C  0.36556733  0.35366878  0.45846816    -0.00700
C1225       C  0.35226656  0.38173523  0.47411613    -0.12500
C1226       C  0.35097025  0.38411254  0.50871792     0.01500
H1227       H  0.38703376  0.30981303  0.52707929     0.14500
H1228       H  0.34233565  0.40175634  0.45916749     0.14500
C1229       C  0.33761362  0.41403652  0.52291021     0.36100
C1230       C  0.39299889  0.29856514  0.46368810     0.36000
N1231       N  0.32712441  0.43817637  0.53417619    -0.44200
N1232       N  0.40406286  0.27474769  0.45228218    -0.44200
C1233       C  0.37675141  0.27654125  0.71982620    -0.00600
C1234       C  0.37469482  0.28426712  0.75358657    -0.12500
C1235       C  0.37511206  0.25944371  0.77780548     0.01600
C1236       C  0.37718370  0.22570742  0.76843045    -0.00700
C1237       C  0.37908809  0.21794788  0.73468980    -0.12500
C1238       C  0.37916077  0.24279127  0.71047995     0.01500
H1239       H  0.37286633  0.30992459  0.76121913     0.14500
H1240       H  0.38071439  0.19225909  0.72710677     0.14500
C1241       C  0.38114921  0.23247981  0.67634044     0.36100
C1242       C  0.37256949  0.26965761  0.81193806     0.36000
N1243       N  0.38293959  0.22402890  0.64905917    -0.44200
N1244       N  0.37070563  0.27811994  0.83920852    -0.44200
C1245       C  0.23016729  0.38069796  0.77105625    -0.00600
C1246       C  0.21868448  0.37663683  0.73848274    -0.12500
C1247       C  0.24054301  0.37694686  0.71150853     0.01600
C1248       C  0.27495296  0.38099330  0.71685345    -0.00700
C1249       C  0.28612321  0.38644538  0.74946029    -0.12500
C1250       C  0.26419155  0.38658970  0.77630846     0.01500
H1251       H  0.19245058  0.37263546  0.73404062     0.14500
H1252       H  0.31228472  0.39038894  0.75426512     0.14500
C1253       C  0.27715950  0.39432910  0.80865838     0.36100
C1254       C  0.22660499  0.37361584  0.67884259     0.36000
N1255       N  0.28765509  0.40102388  0.83441761    -0.44200
N1256       N  0.21501948  0.37124164  0.65279033    -0.44200
C1257       C  0.15232896  0.14467204  0.52956541    -0.00600
C1258       C  0.12522120  0.15909876  0.51322046    -0.12500
C1259       C  0.12382877  0.16052813  0.47861345     0.01600
C1260       C  0.15034292  0.14768055  0.45953870    -0.00700
C1261       C  0.17656283  0.13164581  0.47611050    -0.12500
C1262       C  0.17785760  0.13014549  0.51062614     0.01500
H1263       H  0.10526624  0.16992805  0.52761962     0.14500
H1264       H  0.19703702  0.12125074  0.46215323     0.14500
C1265       C  0.20703933  0.11588856  0.52571217     0.36100
C1266       C  0.09508986  0.17581895  0.46380568     0.36000
N1267       N  0.23053729  0.10458059  0.53766512    -0.44200
N1268       N  0.07185733  0.18800622  0.45223014    -0.44200
C1269       C  0.13029796  0.22794782  0.71931916    -0.00600
C1270       C  0.12758547  0.21914989  0.75280918    -0.12500
C1271       C  0.12782586  0.24310096  0.77770518     0.01600
C1272       C  0.13067560  0.27712543  0.76933333    -0.00700
C1273       C  0.13363698  0.28589566  0.73579252    -0.12500
C1274       C  0.13355966  0.26186033  0.71090138     0.01500
H1275       H  0.12533724  0.19327664  0.75971167     0.14500
H1276       H  0.13626508  0.31172232  0.72885761     0.14500
C1277       C  0.13816027  0.27293022  0.67718070     0.36100
C1278       C  0.12603373  0.23149216  0.81151111     0.36000
N1279       N  0.14191118  0.28197894  0.65023636    -0.44200
N1280       N  0.12461382  0.22196391  0.83851105    -0.44200
C1281       C  0.22719850  0.11989369  0.72050787    -0.00600
C1282       C  0.26074577  0.11676392  0.71181995    -0.12500
C1283       C  0.28571484  0.11653767  0.73579750     0.01600
C1284       C  0.27731541  0.11903303  0.76979498    -0.00700
C1285       C  0.24360074  0.12044539  0.77855090    -0.12500
C1286       C  0.21864521  0.12102810  0.75448192     0.01500
H1287       H  0.26766106  0.11501107  0.68593394     0.14500
H1288       H  0.23659507  0.12179298  0.80442999     0.14500
C1289       C  0.18474503  0.12430432  0.76562858     0.36100
C1290       C  0.31961842  0.11511482  0.72424648     0.36000
N1291       N  0.15764461  0.12692874  0.77474608    -0.44200
N1292       N  0.34670275  0.11404790  0.71476329    -0.44200
C1293       C  0.28069531  0.27547585  0.61378664    -0.00600
C1294       C  0.28891211  0.24259714  0.62182932    -0.12500
C1295       C  0.26486145  0.21762947  0.62247081     0.01600
C1296       C  0.23136727  0.22537230  0.61567008    -0.00700
C1297       C  0.22319993  0.25790416  0.60662746    -0.12500
C1298       C  0.24739686  0.28272522  0.60500705     0.01500
H1299       H  0.31425940  0.23626579  0.62815297     0.14500
H1300       H  0.19770719  0.26396469  0.60052188     0.14500
C1301       C  0.23698407  0.31506463  0.59382318     0.36100
C1302       C  0.27539040  0.18461854  0.63126022     0.36000
N1303       N  0.22849517  0.34078786  0.58443136    -0.44200
N1304       N  0.28426208  0.15822652  0.63801826    -0.44200
C1305       C  0.35823594  0.53769527  0.64112183    -0.00600
C1306       C  0.38179462  0.52054876  0.66019677    -0.12500
C1307       C  0.38318361  0.48591876  0.66036074     0.01600
C1308       C  0.36052031  0.46747171  0.64100463    -0.00700
C1309       C  0.33834602  0.48474430  0.62038044    -0.12500
C1310       C  0.33691543  0.51934655  0.62028063     0.01500
H1311       H  0.39870772  0.53424645  0.67590534     0.14500
H1312       H  0.32106297  0.47115801  0.60498974     0.14500
C1313       C  0.31189634  0.53491819  0.59994330     0.36100
C1314       C  0.40718511  0.47036985  0.68187801     0.36000
N1315       N  0.29178932  0.54730922  0.58367297    -0.44200
N1316       N  0.42643616  0.45802078  0.69917661    -0.44200
C1317       C  0.35688544  0.64581656  0.46586315    -0.00600
C1318       C  0.32703775  0.64020482  0.48261842    -0.12500
C1319       C  0.32516977  0.64259403  0.51704612     0.01600
C1320       C  0.35406504  0.65002591  0.53574351    -0.00700
C1321       C  0.38422011  0.65466556  0.51882049    -0.12500
C1322       C  0.38578867  0.65273297  0.48420913     0.01500
H1323       H  0.30460103  0.63554367  0.46855223     0.14500
H1324       H  0.40667090  0.65991404  0.53260040     0.14500
C1325       C  0.41754919  0.65676252  0.46826335     0.36100
C1326       C  0.29272184  0.63898446  0.53188909     0.36000
N1327       N  0.44328923  0.65952894  0.45589286    -0.44200
N1328       N  0.26666965  0.63623204  0.54365914    -0.44200
C1329       C  0.14585799  0.53490411  0.85675297    -0.00600
C1330       C  0.16706085  0.51726984  0.87788344    -0.12500
C1331       C  0.16787796  0.48264341  0.87752525     0.01600
C1332       C  0.14731371  0.46489247  0.85532046    -0.00700
C1333       C  0.12401057  0.48243792  0.83646592    -0.12500
C1334       C  0.12295435  0.51701896  0.83707332     0.01500
H1335       H  0.18418461  0.53053178  0.89371787     0.14500
H1336       H  0.10739113  0.46921986  0.82006031     0.14500
C1337       C  0.09830530  0.53323742  0.81678919     0.36100
C1338       C  0.19035708  0.46626530  0.90007030     0.36000
N1339       N  0.07851025  0.54607760  0.80048994    -0.44200
N1340       N  0.20836020  0.45325592  0.91820607    -0.44200
C1341       C  0.14773255  0.64983328  0.96306030    -0.00600
C1342       C  0.13216161  0.67595554  0.97972466    -0.12500
C1343       C  0.13366170  0.67855482  0.01424497     0.01600
C1344       C  0.15093651  0.65434150  0.03306448    -0.00700
C1345       C  0.16470059  0.62711297  0.01635295    -0.12500
C1346       C  0.16329781  0.62467206  0.98183578     0.01500
H1347       H  0.11997973  0.69532924  0.96561592     0.14500
H1348       H  0.17737640  0.60787327  0.03017909     0.14500
C1349       C  0.17798388  0.59592824  0.96648648     0.36100
C1350       C  0.11778422  0.70688148  0.02914420     0.36000
N1351       N  0.18976555  0.57282726  0.95435177    -0.44200
N1352       N  0.10509197  0.72973870  0.04081583    -0.44200
C1353       C  0.22882025  0.61868292  0.77452466    -0.00600
C1354       C  0.26038371  0.62921616  0.78453606    -0.12500
C1355       C  0.28693922  0.63015875  0.76232449     0.01600
C1356       C  0.28203417  0.62063541  0.72898383    -0.00700
C1357       C  0.25067070  0.60841741  0.71956987    -0.12500
C1358       C  0.22429177  0.60709300  0.74205279     0.01500
H1359       H  0.26413862  0.63766274  0.80972424     0.14500
H1360       H  0.24650512  0.60005253  0.69444787     0.14500
C1361       C  0.19330235  0.59257674  0.73160412     0.36100
C1362       C  0.31855478  0.64139906  0.77474864     0.36000
N1363       N  0.16850805  0.58079022  0.72331693    -0.44200
N1364       N  0.34382107  0.65025172  0.78500432    -0.44200
C1365       C  0.36087270  0.96522330  0.85455277    -0.00600
C1366       C  0.37490020  0.98064141  0.82644312    -0.12500
C1367       C  0.37604912  0.01506224  0.82326164     0.01600
C1368       C  0.36334219  0.03508969  0.84874953    -0.00700
C1369       C  0.35100957  0.02001393  0.87760556    -0.12500
C1370       C  0.34980479  0.98549067  0.88084012     0.01500
H1371       H  0.38383222  0.96582854  0.80595329     0.14500
H1372       H  0.34151890  0.03535218  0.89748034     0.14500
C1373       C  0.33662069  0.97204620  0.91121834     0.36100
C1374       C  0.38779642  0.02892161  0.79239407     0.36000
N1375       N  0.32610546  0.96181819  0.93585053    -0.44200
N1376       N  0.39701436  0.03993930  0.76756514    -0.44200
C1377       C  0.36065802  0.86025082  0.03859779    -0.00600
C1378       C  0.33521439  0.87646156  0.02141864    -0.12500
C1379       C  0.33332017  0.87525341  0.98686538     0.01600
C1380       C  0.35779531  0.85787576  0.96845099    -0.00700
C1381       C  0.38442769  0.84347384  0.98573537    -0.12500
C1382       C  0.38599192  0.84440034  0.02035886     0.01500
H1383       H  0.31568144  0.88882418  0.03514188     0.14500
H1384       H  0.40376893  0.83057672  0.97227545     0.14500
C1385       C  0.41401165  0.82898490  0.03642209     0.36100
C1386       C  0.30509726  0.89113107  0.97160592     0.36000
N1387       N  0.43652973  0.81664799  0.04919299    -0.44200
N1388       N  0.28224020  0.90374294  0.95971305    -0.44200
C1389       C  0.38221273  0.72767751  0.72617652    -0.00600
C1390       C  0.38967296  0.71697942  0.75860234    -0.12500
C1391       C  0.38948506  0.73899734  0.78546328     0.01600
C1392       C  0.38236576  0.77277003  0.78019297    -0.00700
C1393       C  0.37572603  0.78366352  0.74785017    -0.12500
C1394       C  0.37529405  0.76173223  0.72110451     0.01500
H1395       H  0.39538654  0.69116545  0.76319569     0.14500
H1396       H  0.37004156  0.80954969  0.74346488     0.14500
C1397       C  0.36734007  0.77532376  0.68899503     0.36100
C1398       C  0.39756167  0.72643612  0.81793778     0.36000
N1399       N  0.36088887  0.78651531  0.66341346    -0.44200
N1400       N  0.40411951  0.71639376  0.84396186    -0.44200
C1401       C  0.27833322  0.77532291  0.87666406    -0.00600
C1402       C  0.24573436  0.78267404  0.86693974    -0.12500
C1403       C  0.22163799  0.75791643  0.86442186     0.01600
C1404       C  0.22968392  0.72467478  0.87216584    -0.00700
C1405       C  0.26229791  0.71706739  0.88139270    -0.12500
C1406       C  0.28656511  0.74181517  0.88369613     0.01500
H1407       H  0.23898506  0.80792067  0.86070176     0.14500
H1408       H  0.26883658  0.69164262  0.88712257     0.14500
C1409       C  0.31964554  0.73157417  0.89281078     0.36100
C1410       C  0.18937361  0.76748108  0.85222626     0.36000
N1411       N  0.34611300  0.72321648  0.90009250    -0.44200
N1412       N  0.16377673  0.77575062  0.84227869    -0.44200
C1413       C  0.15245293  0.86173482  0.53658530    -0.00600
C1414       C  0.12509088  0.84870610  0.51940194    -0.12500
C1415       C  0.12398876  0.84908582  0.48476488     0.01600
C1416       C  0.15066502  0.86268897  0.46657597    -0.00700
C1417       C  0.17675062  0.87786924  0.48358546    -0.12500
C1418       C  0.17801922  0.87750772  0.51812737     0.01500
H1419       H  0.10480503  0.83735022  0.53295204     0.14500
H1420       H  0.19721260  0.88864547  0.46978954     0.14500
C1421       C  0.20661236  0.89264818  0.53340617     0.36100
C1422       C  0.09503471  0.83570372  0.46858309     0.36000
N1423       N  0.22963354  0.90473676  0.54546566    -0.44200
N1424       N  0.07166968  0.82517320  0.45575852    -0.44200
C1425       C  0.14600722  0.96774461  0.64604533    -0.00600
C1426       C  0.16026576  0.98446772  0.61901336    -0.12500
C1427       C  0.15850129  0.01892764  0.61634166     0.01600
C1428       C  0.14262103  0.03750954  0.64130014    -0.00700
C1429       C  0.12575218  0.02076608  0.66664481    -0.12500
C1430       C  0.12707001  0.98624265  0.66917035     0.01500
H1431       H  0.17367578  0.97074852  0.60024578     0.14500
H1432       H  0.11283494  0.03476821  0.68556049     0.14500
C1433       C  0.10911456  0.97093013  0.69613477     0.36100
C1434       C  0.17297076  0.03448308  0.58754593     0.36000
N1435       N  0.09462879  0.95874748  0.71771377    -0.44200
N1436       N  0.18434321  0.04671885  0.56423638    -0.44200
C1437       C  0.27689193  0.72682480  0.62713057    -0.00600
C1438       C  0.28773056  0.75939147  0.62080455    -0.12500
C1439       C  0.26551893  0.78594409  0.62032726     0.01600
C1440       C  0.23148805  0.78017751  0.62583651    -0.00700
C1441       C  0.22040711  0.74765211  0.63130067    -0.12500
C1442       C  0.24260463  0.72109157  0.63218211     0.01500
H1443       H  0.31380845  0.76435205  0.61648699     0.14500
H1444       H  0.19424528  0.74299105  0.63565837     0.14500
C1445       C  0.22917799  0.68847413  0.63831553     0.36100
C1446       C  0.27827254  0.81864269  0.61333688     0.36000
N1447       N  0.21833931  0.66239555  0.64330482    -0.44200
N1448       N  0.28848128  0.84484174  0.60771884    -0.44200
C1449       C  0.12474955  0.77472252  0.72256671    -0.00600
C1450       C  0.13530208  0.74256387  0.71462173    -0.12500
C1451       C  0.13580557  0.71740575  0.73840231     0.01600
C1452       C  0.12571612  0.72412490  0.77116545    -0.00700
C1453       C  0.11401513  0.75579840  0.77896403    -0.12500
C1454       C  0.11319235  0.78098253  0.75515015     0.01500
H1455       H  0.14408727  0.73708365  0.68985553     0.14500
H1456       H  0.10553295  0.76093822  0.80391410     0.14500
C1457       C  0.10056100  0.81281911  0.76534191     0.36100
C1458       C  0.14849465  0.68554739  0.72858055     0.36000
N1459       N  0.09033976  0.83824355  0.77365426    -0.44200
N1460       N  0.15873006  0.66026072  0.71998279    -0.44200
C1461       C  0.22849422  0.87832145  0.72929709    -0.00600
C1462       C  0.26159677  0.87649766  0.71834555    -0.12500
C1463       C  0.28807488  0.87564452  0.74073687     0.01600
C1464       C  0.28174221  0.87670647  0.77513096    -0.00700
C1465       C  0.24861556  0.87917604  0.78600627    -0.12500
C1466       C  0.22216895  0.87995782  0.76360970     0.01500
H1467       H  0.26689321  0.87520874  0.69205492     0.14500
H1468       H  0.24316183  0.88012037  0.81227312     0.14500
C1469       C  0.18895692  0.88322974  0.77665249     0.36100
C1470       C  0.32133208  0.87423641  0.72747592     0.36000
N1471       N  0.16236910  0.88592658  0.78714356    -0.44200
N1472       N  0.34794638  0.87318693  0.71675082    -0.44200
C1473       C  0.53878010  0.36241662  0.64207125    -0.00600
C1474       C  0.52150054  0.36958980  0.67132457    -0.12500
C1475       C  0.48695050  0.36775462  0.67284953     0.01600
C1476       C  0.46852702  0.35861991  0.64437141    -0.00700
C1477       C  0.48569924  0.35318779  0.61460954    -0.12500
C1478       C  0.52038223  0.35518020  0.61312959     0.01500
H1479       H  0.53508620  0.37545787  0.69370642     0.14500
H1480       H  0.47204104  0.34698579  0.59237088     0.14500
C1481       C  0.53616292  0.34975611  0.58149672     0.36100
C1482       C  0.47168620  0.37419435  0.70457679     0.36000
N1483       N  0.54877835  0.34548762  0.55612292    -0.44200
N1484       N  0.45959825  0.37935145  0.73004003    -0.44200
C1485       C  0.64898553  0.35669258  0.52829252    -0.00600
C1486       C  0.64903142  0.38709363  0.51117925    -0.12500
C1487       C  0.64970512  0.38816643  0.47643485     0.01600
C1488       C  0.65053220  0.35835833  0.45826391    -0.00700
C1489       C  0.64968628  0.32812293  0.47542812    -0.12500
C1490       C  0.64917495  0.32696799  0.50990339     0.01500
H1491       H  0.64870075  0.41008005  0.52497133     0.14500
H1492       H  0.65073562  0.30502003  0.46183985     0.14500
C1493       C  0.65114418  0.29477855  0.52548682     0.36100
C1494       C  0.64874729  0.42001472  0.46014300     0.36000
N1495       N  0.65287943  0.26902159  0.53797376    -0.44200
N1496       N  0.64782531  0.44551197  0.44704091    -0.44200
C1497       C  0.53847680  0.15003643  0.84566077    -0.00600
C1498       C  0.52110811  0.17651574  0.86016724    -0.12500
C1499       C  0.48652715  0.17703353  0.86115311     0.01600
C1500       C  0.46839334  0.15033259  0.84795690    -0.00700
C1501       C  0.48545712  0.12337351  0.83436173    -0.12500
C1502       C  0.52015083  0.12284522  0.83321906     0.01500
H1503       H  0.53446814  0.19771647  0.86975558     0.14500
H1504       H  0.47155744  0.10276562  0.82421048     0.14500
C1505       C  0.53577620  0.09415631  0.81882802     0.36100
C1506       C  0.47045104  0.20657768  0.87327853     0.36000
N1507       N  0.54791461  0.07094382  0.80730032    -0.44200
N1508       N  0.45766617  0.23041493  0.88267896    -0.44200
C1509       C  0.64640340  0.14810720  0.95805457    -0.00600
C1510       C  0.67254632  0.13250619  0.97504131    -0.12500
C1511       C  0.67410969  0.13245536  0.00956106     0.01600
C1512       C  0.64909080  0.14839943  0.02815640    -0.00700
C1513       C  0.62194738  0.16235001  0.01144370    -0.12500
C1514       C  0.62010954  0.16195685  0.97678716     0.01500
H1515       H  0.69273632  0.12125138  0.96133602     0.14500
H1516       H  0.60223630  0.17398745  0.02553161     0.14500
C1517       C  0.59111089  0.17628053  0.96144903     0.36100
C1518       C  0.70292693  0.11770031  0.02489230     0.36000
N1519       N  0.56775802  0.18757087  0.94919363    -0.44200
N1520       N  0.72603495  0.10586178  0.03708848    -0.44200
C1521       C  0.62871009  0.28740989  0.72457698    -0.00600
C1522       C  0.60326978  0.26359020  0.72440473    -0.12500
C1523       C  0.60205546  0.23848519  0.74843378     0.01600
C1524       C  0.62689204  0.23672432  0.77297687    -0.00700
C1525       C  0.65181396  0.26088058  0.77356301    -0.12500
C1526       C  0.65306948  0.28591589  0.74970675     0.01500
H1527       H  0.58414965  0.26470899  0.70558059     0.14500
H1528       H  0.67116620  0.25954622  0.79215360     0.14500
C1529       C  0.68089133  0.30834665  0.75078225     0.36100
C1530       C  0.57442887  0.21572249  0.74816688     0.36000
N1531       N  0.70350781  0.32590047  0.75207083    -0.44200
N1532       N  0.55216908  0.19762181  0.74817459    -0.44200
C1533       C  0.97001911  0.35517520  0.84784014    -0.00600
C1534       C  0.98610738  0.32941856  0.86503259    -0.12500
C1535       C  0.02071906  0.32752202  0.86650606     0.01600
C1536       C  0.04020163  0.35222748  0.85117944    -0.00700
C1537       C  0.02429248  0.37859564  0.83502931    -0.12500
C1538       C  0.98968692  0.38027684  0.83306266     0.01500
H1539       H  0.97166037  0.30979764  0.87641672     0.14500
H1540       H  0.03905233  0.39768138  0.82310184     0.14500
C1541       C  0.97557560  0.40743801  0.81454596     0.36100
C1542       C  0.03527622  0.29841969  0.88137905     0.36000
N1543       N  0.96455363  0.42924204  0.79954136    -0.44200
N1544       N  0.04664509  0.27477205  0.89292842    -0.44200
C1545       C  0.85984306  0.35985282  0.95712423    -0.00600
C1546       C  0.87956333  0.33706756  0.97438615    -0.12500
C1547       C  0.87993034  0.33622468  0.00893382     0.01600
C1548       C  0.86032504  0.35889011  0.02728043    -0.00700
C1549       C  0.84224382  0.38309402  0.00997243    -0.12500
C1550       C  0.84178354  0.38375407  0.97529122     0.01500
H1551       H  0.89380463  0.31876668  0.96085030     0.14500
H1552       H  0.82747954  0.40096311  0.02350492     0.14500
C1553       C  0.82250862  0.40924172  0.95917712     0.36100
C1554       C  0.90024479  0.31114916  0.02444868     0.36000
N1555       N  0.80704723  0.42968443  0.94631674    -0.44200
N1556       N  0.91639694  0.29085493  0.03667574    -0.44200
C1557       C  0.73570431  0.38499166  0.71175428    -0.00600
C1558       C  0.72932245  0.40010033  0.74241060    -0.12500
C1559       C  0.75272952  0.39948372  0.76798653     0.01600
C1560       C  0.78369916  0.38360699  0.76315557    -0.00700
C1561       C  0.79056826  0.36973661  0.73206149    -0.12500
C1562       C  0.76717147  0.37017541  0.70658406     0.01500
H1563       H  0.70553681  0.41183495  0.74683114     0.14500
H1564       H  0.81417514  0.35760576  0.72770721     0.14500
C1565       C  0.77624231  0.35416882  0.67594587     0.36100
C1566       C  0.74381659  0.41515023  0.79882536     0.36000
N1567       N  0.78368118  0.34129972  0.65148752    -0.44200
N1568       N  0.73652857  0.42764714  0.82352155    -0.44200
C1569       C  0.77582222  0.28108981  0.86992068    -0.00600
C1570       C  0.78508547  0.24948824  0.88167268    -0.12500
C1571       C  0.76253051  0.22307392  0.88223597     0.01600
C1572       C  0.72973172  0.22803197  0.87136870    -0.00700
C1573       C  0.72016900  0.25953440  0.86025539    -0.12500
C1574       C  0.74275106  0.28581581  0.85901637     0.01500
H1575       H  0.81019747  0.24514342  0.89021873     0.14500
H1576       H  0.69500706  0.26343308  0.85157266     0.14500
C1577       C  0.73111808  0.31687696  0.84560316     0.36100
C1578       C  0.77336274  0.19148895  0.89506093     0.36000
N1579       N  0.72167107  0.34164321  0.83467964    -0.44200
N1580       N  0.78201904  0.16622646  0.90549195    -0.44200
C1581       C  0.86062778  0.14985691  0.52737455    -0.00600
C1582       C  0.83977201  0.12718580  0.51115618    -0.12500
C1583       C  0.83808219  0.12592791  0.47665417     0.01600
C1584       C  0.85807128  0.14739317  0.45747190    -0.00700
C1585       C  0.88043812  0.16856807  0.47365713    -0.12500
C1586       C  0.88174524  0.17022435  0.50814934     0.01500
H1587       H  0.82356200  0.11118437  0.52547925     0.14500
H1588       H  0.89623194  0.18494475  0.45928071     0.14500
C1589       C  0.90346157  0.19463414  0.52266602     0.36100
C1590       C  0.81392659  0.10398574  0.46203798     0.36000
N1591       N  0.92077315  0.21436004  0.53413428    -0.44200
N1592       N  0.79439891  0.08649185  0.45049032    -0.44200
C1593       C  0.96830390  0.15335146  0.63901020    -0.00600
C1594       C  0.98560284  0.18232680  0.63000575    -0.12500
C1595       C  0.02028242  0.18327507  0.62958427     0.01600
C1596       C  0.03852647  0.15466856  0.63772462    -0.00700
C1597       C  0.02156856  0.12549716  0.64600721    -0.12500
C1598       C  0.98681990  0.12447704  0.64661296     0.01500
H1599       H  0.97208234  0.20487750  0.62450328     0.14500
H1600       H  0.03560094  0.10349103  0.65245013     0.14500
C1601       C  0.97119081  0.09351136  0.65546502     0.36100
C1602       C  0.03648346  0.21462910  0.62351549     0.36000
N1603       N  0.95876009  0.06867205  0.66263764    -0.44200
N1604       N  0.04949846  0.23978807  0.61903812    -0.44200
C1605       C  0.77318223  0.22588944  0.61323083    -0.00600
C1606       C  0.74399616  0.22081336  0.63154551    -0.12500
C1607       C  0.71923773  0.24503729  0.63334718     0.01600
C1608       C  0.72328100  0.27568729  0.61653968    -0.00700
C1609       C  0.75207916  0.28041699  0.59741960    -0.12500
C1610       C  0.77675664  0.25597561  0.59545855     0.01500
H1611       H  0.74078707  0.19804990  0.64544655     0.14500
H1612       H  0.75544987  0.30338546  0.58387035     0.14500
C1613       C  0.80509383  0.26243223  0.57450769     0.36100
C1614       C  0.69053811  0.23764102  0.65353522     0.36000
N1615       N  0.82771909  0.26762013  0.55760779    -0.44200
N1616       N  0.66759038  0.23149319  0.66966801    -0.44200
C1617       C  0.72860623  0.12914037  0.76682214    -0.00600
C1618       C  0.72008196  0.12924573  0.73317089    -0.12500
C1619       C  0.74442255  0.12812205  0.70852926     0.01600
C1620       C  0.77839793  0.12746800  0.71739447    -0.00700
C1621       C  0.78690706  0.12681126  0.75103839    -0.12500
C1622       C  0.76254795  0.12732669  0.77567618     0.01500
H1623       H  0.69418151  0.13025385  0.72597987     0.14500
H1624       H  0.81282159  0.12604804  0.75821891     0.14500
C1625       C  0.77350531  0.12683062  0.80967901     0.36100
C1626       C  0.73348371  0.12862140  0.67451252     0.36000
N1627       N  0.78250320  0.12619273  0.83684777    -0.44200
N1628       N  0.72449261  0.12884295  0.64732914    -0.44200
C1629       C  0.87563586  0.23170415  0.71585144    -0.00600
C1630       C  0.86957284  0.22057838  0.74824377    -0.12500
C1631       C  0.86960284  0.24246899  0.77491653     0.01600
C1632       C  0.87682436  0.27633551  0.76947345    -0.00700
C1633       C  0.88257595  0.28738703  0.73686174    -0.12500
C1634       C  0.88168819  0.26556316  0.71014900     0.01500
H1635       H  0.86416232  0.19462506  0.75270246     0.14500
H1636       H  0.88747575  0.31334465  0.73199177     0.14500
C1637       C  0.88776856  0.27851754  0.67734770     0.36100
C1638       C  0.86170512  0.22924229  0.80723960     0.36000
N1639       N  0.89249092  0.28886665  0.65102898    -0.44200
N1640       N  0.85508038  0.21857697  0.83302707    -0.44200
C1641       C  0.53899880  0.64904146  0.63885243    -0.00600
C1642       C  0.52334178  0.62770324  0.66159040    -0.12500
C1643       C  0.48882107  0.62572571  0.66374944     0.01600
C1644       C  0.46895473  0.64567304  0.64291634    -0.00700
C1645       C  0.48451207  0.66499631  0.61840374    -0.12500
C1646       C  0.51912816  0.66659051  0.61592116     0.01500
H1647       H  0.53811164  0.61320899  0.67873971     0.14500
H1648       H  0.46955716  0.67963479  0.60153547     0.14500
C1649       C  0.53318844  0.68719430  0.59022232     0.36100
C1650       C  0.47487984  0.60431758  0.68887203     0.36000
N1651       N  0.54435381  0.70355176  0.56945041    -0.44200
N1652       N  0.46384737  0.58705427  0.70897122    -0.44200
C1653       C  0.65200566  0.54290923  0.63815692    -0.00600
C1654       C  0.62472537  0.52567159  0.65135157    -0.12500
C1655       C  0.62321230  0.49103076  0.65075010     0.01600
C1656       C  0.64967831  0.47254692  0.63682224    -0.00700
C1657       C  0.67579362  0.48988569  0.62159403    -0.12500
C1658       C  0.67720098  0.52449809  0.62199773     0.01500
H1659       H  0.60473621  0.53922709  0.66312845     0.14500
H1660       H  0.69595759  0.47634980  0.61009362     0.14500
C1661       C  0.70538461  0.53992719  0.60614224     0.36100
C1662       C  0.59434261  0.47553685  0.66529071     0.36000
N1663       N  0.72816857  0.55193580  0.59345575    -0.44200
N1664       N  0.57111753  0.46329063  0.67693059    -0.44200
C1665       C  0.65016028  0.65258655  0.53194320    -0.00600
C1666       C  0.62451167  0.66950748  0.51550008    -0.12500
C1667       C  0.62223697  0.66938961  0.48087421     0.01600
C1668       C  0.64613744  0.65204848  0.46198358    -0.00700
C1669       C  0.67051850  0.63359486  0.47870832    -0.12500
C1670       C  0.67301897  0.63401260  0.51309005     0.01500
H1671       H  0.60654606  0.68352335  0.52972453     0.14500
H1672       H  0.68893572  0.61982507  0.46481466     0.14500
C1673       C  0.70108864  0.61732836  0.52775808     0.36100
C1674       C  0.59588613  0.68826882  0.46571602     0.36000
N1675       N  0.72388193  0.60419077  0.53916209    -0.44200
N1676       N  0.57469758  0.70338731  0.45366302    -0.44200
C1677       C  0.86082682  0.53830787  0.84859842    -0.00600
C1678       C  0.87517217  0.52209818  0.82152587    -0.12500
C1679       C  0.87543459  0.48757439  0.81957503     0.01600
C1680       C  0.86159690  0.46836596  0.84566389    -0.00700
C1681       C  0.84923498  0.48477340  0.87369915    -0.12500
C1682       C  0.84855318  0.51932322  0.87527220     0.01500
H1683       H  0.88473287  0.53650162  0.80090469     0.14500
H1684       H  0.83913576  0.47064135  0.89421640     0.14500
C1685       C  0.83530563  0.53447021  0.90471090     0.36100
C1686       C  0.88861113  0.47315029  0.78962887     0.36000
N1687       N  0.82470956  0.54620850  0.92854341    -0.44200
N1688       N  0.89897581  0.46181418  0.76546226    -0.44200
C1689       C  0.96763149  0.64580613  0.85224883    -0.00600
C1690       C  0.98535810  0.66668635  0.87345770    -0.12500
C1691       C  0.02000307  0.66660492  0.87389170     0.01600
C1692       C  0.03787857  0.64509032  0.85265780    -0.00700
C1693       C  0.02005924  0.62248534  0.83320146    -0.12500
C1694       C  0.98531198  0.62261928  0.83281233     0.01500
H1695       H  0.97214165  0.68421749  0.88890536     0.14500
H1696       H  0.03324440  0.60536983  0.81728813     0.14500
C1697       C  0.96864349  0.59863526  0.81223225     0.36100
C1698       C  0.03616813  0.68944516  0.89610817     0.36000
N1699       N  0.95538350  0.57934595  0.79576458    -0.44200
N1700       N  0.04897601  0.70787300  0.91386147    -0.44200
C1701       C  0.85776723  0.64539491  0.96296721    -0.00600
C1702       C  0.88410137  0.66207914  0.97850812    -0.12500
C1703       C  0.88606941  0.66432249  0.01305741     0.01600
C1704       C  0.86122161  0.64953187  0.03295174    -0.00700
C1705       C  0.83592026  0.63132681  0.01726778    -0.12500
C1706       C  0.83377093  0.62941867  0.98281611     0.01500
H1707       H  0.90281649  0.67431533  0.96352056     0.14500
H1708       H  0.81669966  0.61949528  0.03192139     0.14500
C1709       C  0.80501258  0.61336510  0.96885537     0.36100
C1710       C  0.91317735  0.68301372  0.02698967     0.36000
N1711       N  0.78170488  0.60071624  0.95797281    -0.44200
N1712       N  0.93495457  0.69801873  0.03803228    -0.44200
C1713       C  0.77598112  0.62792060  0.77351598    -0.00600
C1714       C  0.78717730  0.63046487  0.74062062    -0.12500
C1715       C  0.76493035  0.63198356  0.71415781     0.01600
C1716       C  0.73040917  0.63095892  0.72030496    -0.00700
C1717       C  0.71923124  0.62778182  0.75314518    -0.12500
C1718       C  0.74151460  0.62621038  0.77960003     0.01500
H1719       H  0.81355987  0.63181459  0.73544845     0.14500
H1720       H  0.69283856  0.62682475  0.75833799     0.14500
C1721       C  0.72812048  0.62196309  0.81247675     0.36100
C1722       C  0.77848865  0.63406727  0.68109813     0.36000
N1723       N  0.71716334  0.61834707  0.83871321    -0.44200
N1724       N  0.78939935  0.63572080  0.65463881    -0.44200
C1725       C  0.54009178  0.85855414  0.86030451    -0.00600
C1726       C  0.52371233  0.83250139  0.87633676    -0.12500
C1727       C  0.48912045  0.83075155  0.87689300     0.01600
C1728       C  0.46998920  0.85570973  0.86105452    -0.00700
C1729       C  0.48657167  0.88330902  0.84758618    -0.12500
C1730       C  0.52128574  0.88495821  0.84718352     0.01500
H1731       H  0.53801405  0.81236972  0.88698040     0.14500
H1732       H  0.47249304  0.90327117  0.83639705     0.14500
C1733       C  0.53695475  0.91409991  0.83346007     0.36100
C1734       C  0.47451478  0.80219433  0.89285348     0.36000
N1735       N  0.54947971  0.93756770  0.82269925    -0.44200
N1736       N  0.46301843  0.77920601  0.90561545    -0.44200
C1737       C  0.64684803  0.97014464  0.84627149    -0.00600
C1738       C  0.63279474  0.98685644  0.81928106    -0.12500
C1739       C  0.63297253  0.02150182  0.81750583     0.01600
C1740       C  0.64717876  0.04033490  0.84354105    -0.00700
C1741       C  0.65951920  0.02337774  0.87136185    -0.12500
C1742       C  0.65952275  0.98876540  0.87288134     0.01500
H1743       H  0.62288317  0.97274148  0.79874085     0.14500
H1744       H  0.66992570  0.03712252  0.89188517     0.14500
C1745       C  0.67209363  0.97308967  0.90241581     0.36100
C1746       C  0.61927849  0.03651659  0.78806498     0.36000
N1747       N  0.68198816  0.96079848  0.92631785    -0.44200
N1748       N  0.60834852  0.04831824  0.76433621    -0.44200
C1749       C  0.65475414  0.86490543  0.96176340    -0.00600
C1750       C  0.62818501  0.84969836  0.97839016    -0.12500
C1751       C  0.62692914  0.84840435  0.01296337     0.01600
C1752       C  0.65279460  0.86269569  0.03180102    -0.00700
C1753       C  0.67834908  0.87966439  0.01500118    -0.12500
C1754       C  0.67970547  0.88066645  0.98042686     0.01500
H1755       H  0.60871469  0.83779304  0.96422723     0.14500
H1756       H  0.69830361  0.89109762  0.02885220     0.14500
C1757       C  0.70845614  0.89557891  0.96505917     0.36100
C1758       C  0.59947008  0.83096360  0.02798184     0.36000
N1759       N  0.73164357  0.90739025  0.95290481    -0.44200
N1760       N  0.57745040  0.81690239  0.03990001    -0.44200
C1761       C  0.62309627  0.77747979  0.77513549    -0.00600
C1762       C  0.61082076  0.78490792  0.74352959    -0.12500
C1763       C  0.60941713  0.76076422  0.71874678     0.01600
C1764       C  0.62175375  0.72844635  0.72497974    -0.00700
C1765       C  0.63269459  0.72077859  0.75713210    -0.12500
C1766       C  0.63316832  0.74469370  0.78212646     0.01500
H1767       H  0.60223498  0.80979625  0.73814729     0.14500
H1768       H  0.64177122  0.69612277  0.76273252     0.14500
C1769       C  0.64564274  0.73498074  0.81416367     0.36100
C1770       C  0.59505048  0.77018541  0.68739313     0.36000
N1771       N  0.65550768  0.72662376  0.83971735    -0.44200
N1772       N  0.58342561  0.77779957  0.66233420    -0.44200
C1773       C  0.77969844  0.72949572  0.87694379    -0.00600
C1774       C  0.78832483  0.76235764  0.86920259    -0.12500
C1775       C  0.76457336  0.78758228  0.86832922     0.01600
C1776       C  0.73102086  0.78033952  0.87545879    -0.00700
C1777       C  0.72243832  0.74781867  0.88430244    -0.12500
C1778       C  0.74617254  0.72248571  0.88507459     0.01500
H1779       H  0.81375205  0.76845061  0.86303204     0.14500
H1780       H  0.69691740  0.74209245  0.89061250     0.14500
C1781       C  0.73491989  0.68969546  0.89393392     0.36100
C1782       C  0.77539607  0.82023953  0.85851190     0.36000
N1783       N  0.72572076  0.66350997  0.90114814    -0.44200
N1784       N  0.78443818  0.84628846  0.85065540    -0.44200
C1785       C  0.86088486  0.86124753  0.46460170    -0.00600
C1786       C  0.88726125  0.84635949  0.48185548    -0.12500
C1787       C  0.88822198  0.84650502  0.51647771     0.01600
C1788       C  0.86273664  0.86236378  0.53444563    -0.00700
C1789       C  0.83773441  0.87913773  0.51732583    -0.12500
C1790       C  0.83617484  0.87837852  0.48292100     0.01500
H1791       H  0.90660409  0.83346566  0.46839578     0.14500
H1792       H  0.81799570  0.89126719  0.53098047     0.14500
C1793       C  0.80760224  0.89386055  0.46786157     0.36100
C1794       C  0.91545573  0.83000047  0.53284107     0.36000
N1795       N  0.78439042  0.90599558  0.45615963    -0.44200
N1796       N  0.93726025  0.81671343  0.54590461    -0.44200
C1797       C  0.97036205  0.86048066  0.64401756    -0.00600
C1798       C  0.98779240  0.83897551  0.62313657    -0.12500
C1799       C  0.02241316  0.83875534  0.62250822     0.01600
C1800       C  0.04045701  0.86014825  0.64364628    -0.00700
C1801       C  0.02296139  0.88354304  0.66247688    -0.12500
C1802       C  0.98826481  0.88407323  0.66264840     0.01500
H1803       H  0.97437702  0.82131844  0.60805012     0.14500
H1804       H  0.03632802  0.90084956  0.67800740     0.14500
C1805       C  0.97185891  0.90926782  0.68198097     0.36100
C1806       C  0.03838816  0.81598507  0.60004217     0.36000
N1807       N  0.95876751  0.92958602  0.69733110    -0.44200
N1808       N  0.05106981  0.79774921  0.58197447    -0.44200
C1809       C  0.86452697  0.97012049  0.64484635    -0.00600
C1810       C  0.85699119  0.98559301  0.61461149    -0.12500
C1811       C  0.85604661  0.02021694  0.61190764     0.01600
C1812       C  0.86177843  0.03991563  0.64021497    -0.00700
C1813       C  0.87080679  0.02410052  0.67001004    -0.12500
C1814       C  0.87222227  0.98968820  0.67252425     0.01500
H1815       H  0.85143630  0.97052548  0.59314199     0.14500
H1816       H  0.87554254  0.03855567  0.69207093     0.14500
C1817       C  0.87899907  0.97515824  0.70452482     0.36100
C1818       C  0.84946081  0.03459815  0.57984182     0.36000
N1819       N  0.88429247  0.96352759  0.73017826    -0.44200
N1820       N  0.84447009  0.04605629  0.55404667    -0.44200
C1821       C  0.78043422  0.78204341  0.62046316    -0.00600
C1822       C  0.74930655  0.79162701  0.63263622    -0.12500
C1823       C  0.72259314  0.76950055  0.63326710     0.01600
C1824       C  0.72663419  0.73697973  0.62082581    -0.00700
C1825       C  0.75781360  0.72790947  0.60778680    -0.12500
C1826       C  0.78456695  0.74997455  0.60767844     0.01500
H1827       H  0.74611000  0.81632412  0.64265555     0.14500
H1828       H  0.76158941  0.70329433  0.59784913     0.14500
C1829       C  0.81565953  0.73946791  0.59336943     0.36100
C1830       C  0.69195231  0.78093141  0.64779482     0.36000
N1831       N  0.84053123  0.73111036  0.58175915    -0.44200
N1832       N  0.66762818  0.79045881  0.65963521    -0.44200
C1833       C  0.87899764  0.77995281  0.72469607    -0.00600
C1834       C  0.87852674  0.78792908  0.75849094    -0.12500
C1835       C  0.87844266  0.76318479  0.78283023     0.01600
C1836       C  0.87848610  0.72940610  0.77351316    -0.00700
C1837       C  0.87875073  0.72146319  0.73976071    -0.12500
C1838       C  0.87909419  0.74613026  0.71545720     0.01500
H1839       H  0.87829160  0.81367844  0.76602615     0.14500
H1840       H  0.87866491  0.69571692  0.73219606     0.14500
C1841       C  0.87853220  0.73557353  0.68135043     0.36100
C1842       C  0.87755327  0.77348195  0.81701075     0.36000
N1843       N  0.87815621  0.72684998  0.65410821    -0.44200
N1844       N  0.87706867  0.78193628  0.84434124    -0.44200
C1845       C  0.77789548  0.88435252  0.72069886    -0.00600
C1846       C  0.74477149  0.87793035  0.71188758    -0.12500
C1847       C  0.71959894  0.87696898  0.73571819     0.01600
C1848       C  0.72742398  0.88228122  0.76936884    -0.00700
C1849       C  0.76023001  0.88970408  0.77805659    -0.12500
C1850       C  0.78536221  0.89091620  0.75432584     0.01500
H1851       H  0.73845051  0.87302012  0.68628994     0.14500
H1852       H  0.76637226  0.89457277  0.80370510     0.14500
C1853       C  0.81844792  0.89841357  0.76580991     0.36100
C1854       C  0.68635775  0.86927541  0.72485000     0.36000
N1855       N  0.84485620  0.90447011  0.77523100    -0.44200
N1856       N  0.65977749  0.86322832  0.71591352    -0.44200
loop_ 
_geom_bond_atom_site_label_1 
_geom_bond_atom_site_label_2 
_geom_bond_distance 
_geom_bond_site_symmetry_2 
_ccdc_geom_bond_type 
O1           C16   1.261       .  A
O1           Al9   1.895       .  S
C2           O12   1.261       .  A
C2            O3   1.261       .  A
C2         C1821   1.473       .  S
O3           Al5   1.905       .  S
O4            C6   1.259       .  A
O4           Al5   1.888       .  S
Al5          O13   1.885       .  S
Al5          O15   1.903       .  S
Al5          O14   1.781       .  S
C6           O19   1.259       .  A
C6         C1845   1.484       .  S
O7           C17   1.261       .  A
O7           Al9   1.899       .  S
O8           C21   1.261       .  A
O8          Al18   1.890       .  S
Al9          O22   1.905       .  S
Al9          O19   1.900       .  S
Al9          O14   1.782       .  S
O10          C17   1.260       .  A
O10         Al18   1.907       .  S
O11          C20   1.259       .  A
O11         Al18   1.899       .  S
O12         Al18   1.895       .  S
O13          C20   1.259       .  A
O14         Al18   1.784       .  S
O15          C16   1.260       .  A
C16        C1809   1.473       .  S
C17        C1833   1.486       .  S
C20        C1788   1.472       .  S
C21          O22   1.261       .  A
C21        C1797   1.479       .  S
O23          C38   1.259       .  A
O23         Al31   1.894       .  S
C24          O34   1.259       .  A
C24          O25   1.260       .  A
C24        C1761   1.483       .  S
O25         Al27   1.911       .  S
O26          C28   1.259       .  A
O26         Al27   1.890       .  S
Al27         O35   1.889       .  S
Al27         O37   1.901       .  S
Al27         O36   1.790       .  S
C28          O41   1.262       .  A
C28        C1776   1.485       .  S
O29          C39   1.259       .  A
O29         Al31   1.881       .  S
O30          C43   1.259       .  A
O30         Al40   1.894       .  S
Al31         O44   1.907       .  S
Al31         O41   1.916       .  S
Al31         O36   1.790       .  S
O32          C39   1.260       .  A
O32         Al40   1.905       .  S
O33          C42   1.261       .  A
O33         Al40   1.903       .  S
O34         Al40   1.893       .  S
O35          C42   1.260       .  A
O36         Al40   1.793       .  S
O37          C38   1.261       .  A
C38        C1749   1.479       .  S
C39        C1848   1.478       .  S
C42        C1725   1.476       .  S
C43          O44   1.261       .  A
C43        C1737   1.481       .  S
O45          C60   1.260       .  A
O45         Al53   1.901       .  S
C46          O56   1.260       .  A
C46          O47   1.261       .  A
C46        C1836   1.484       .  S
O47         Al49   1.912       .  S
O48          C50   1.262       .  A
O48         Al49   1.891       .  S
Al49         O57   1.897       .  S
Al49         O59   1.900       .  S
Al49         O58   1.781       .  S
C50          O63   1.263       .  A
C50        C1773   1.493       .  S
O51          C61   1.258       .  A
O51         Al53   1.896       .  S
O52          C65   1.260       .  A
O52         Al62   1.884       .  S
Al53         O66   1.915       .  S
Al53         O63   1.917       .  S
Al53         O58   1.783       .  S
O54          C61   1.259       .  A
O54         Al62   1.900       .  S
O55          C64   1.261       .  A
O55         Al62   1.906       .  S
O56         Al62   1.891       .  S
O57          C64   1.262       .  A
O58         Al62   1.784       .  S
O59          C60   1.260       .  A
C60        C1701   1.483       .  S
C61        C1713   1.483       .  S
C64        C1689   1.482       .  S
C65          O66   1.264       .  A
C65        C1677   1.477       .  S
O67          C82   1.260       .  A
O67         Al75   1.884       .  S
C68          O78   1.262       .  A
C68          O69   1.262       .  A
C68        C1764   1.493       .  S
O69         Al71   1.915       .  S
O70          C72   1.260       .  A
O70         Al71   1.900       .  S
Al71         O79   1.897       .  S
Al71         O81   1.919       .  S
Al71         O80   1.782       .  S
C72          O85   1.261       .  A
C72        C1824   1.490       .  S
O73          C83   1.260       .  A
O73         Al75   1.888       .  S
O74          C87   1.262       .  A
O74         Al84   1.902       .  S
Al75         O88   1.909       .  S
Al75         O85   1.907       .  S
Al75         O80   1.778       .  S
O76          C83   1.263       .  A
O76         Al84   1.913       .  S
O77          C86   1.262       .  A
O77         Al84   1.899       .  S
O78         Al84   1.895       .  S
O79          C86   1.260       .  A
O80         Al84   1.779       .  S
O81          C82   1.265       .  A
C82        C1665   1.481       .  S
C83        C1716   1.483       .  S
C86        C1641   1.486       .  S
C87          O88   1.260       .  A
C87        C1653   1.492       .  S
O89         C104   1.260       .  A
O89         Al97   1.891       .  S
C90         O100   1.261       .  A
C90          O91   1.261       .  A
C90        C1620   1.482       .  S
O91         Al93   1.908       .  S
O92          C94   1.262       .  A
O92         Al93   1.900       .  S
Al93        O101   1.910       .  S
Al93        O103   1.900       .  S
Al93        O102   1.782       .  S
C94         O107   1.262       .  A
C94        C1605   1.493       .  S
O95         C105   1.259       .  A
O95         Al97   1.891       .  S
O96         C109   1.261       .  A
O96        Al106   1.894       .  S
Al97        O110   1.916       .  S
Al97        O107   1.917       .  S
Al97        O102   1.783       .  S
O98         C105   1.259       .  A
O98        Al106   1.895       .  S
O99         C108   1.259       .  A
O99        Al106   1.890       .  S
O100       Al106   1.890       .  S
O101        C108   1.263       .  A
O102       Al106   1.780       .  S
O103        C104   1.262       .  A
C104       C1581   1.483       .  S
C105       C1629   1.472       .  S
C108       C1812   1.488       .  S
C109        O110   1.265       .  A
C109       C1593   1.490       .  S
O111        C126   1.263       .  A
O111       Al119   1.894       .  S
C112        O122   1.260       .  A
C112        O113   1.261       .  A
C112       C1560   1.489       .  S
O113       Al115   1.913       .  S
O114        C116   1.260       .  A
O114       Al115   1.897       .  S
Al115       O123   1.897       .  S
Al115       O125   1.914       .  S
Al115       O124   1.778       .  S
C116        O129   1.262       .  A
C116       C1569   1.493       .  S
O117        C127   1.259       .  A
O117       Al119   1.888       .  S
O118        C131   1.259       .  A
O118       Al128   1.893       .  S
Al119       O132   1.913       .  S
Al119       O129   1.912       .  S
Al119       O124   1.780       .  S
O120        C127   1.262       .  A
O120       Al128   1.904       .  S
O121        C130   1.259       .  A
O121       Al128   1.895       .  S
O122       Al128   1.887       .  S
O123        C130   1.263       .  A
O124       Al128   1.780       .  S
O125        C126   1.264       .  A
C126       C1545   1.484       .  S
C127       C1632   1.483       .  S
C130       C1680   1.486       .  S
C131        O132   1.263       .  A
C131       C1533   1.490       .  S
O133        C148   1.259       .  A
O133       Al141   1.895       .  S
C134        O144   1.262       .  A
C134        O135   1.261       .  A
C134       C1617   1.482       .  S
O135       Al137   1.909       .  S
O136        C138   1.261       .  A
O136       Al137   1.899       .  S
Al137       O145   1.901       .  S
Al137       O147   1.907       .  S
Al137       O146   1.782       .  S
C138        O151   1.262       .  A
C138       C1572   1.478       .  S
O139        C149   1.257       .  A
O139       Al141   1.885       .  S
O140        C153   1.260       .  A
O140       Al150   1.891       .  S
Al141       O154   1.904       .  S
Al141       O151   1.908       .  S
Al141       O146   1.780       .  S
O142        C149   1.261       .  A
O142       Al150   1.920       .  S
O143        C152   1.262       .  A
O143       Al150   1.914       .  S
O144       Al150   1.893       .  S
O145        C152   1.264       .  A
O146       Al150   1.784       .  S
O147        C148   1.262       .  A
C148       C1509   1.491       .  S
C149       C1524   1.478       .  S
C152       C1740   1.493       .  S
C153        O154   1.264       .  A
C153       C1497   1.486       .  S
O155        C170   1.263       .  A
O155       Al163   1.912       .  S
C156        O166   1.265       .  A
C156        O157   1.256       .  A
C156       C1557   1.490       .  S
O157       Al159   1.876       .  S
O158        C160   1.269       .  A
O158       Al159   1.943       .  S
Al159       O167   1.931       .  S
Al159       O169   1.894       .  S
Al159       O168   1.779       .  S
C160        O173   1.258       .  A
C160       C1608   1.494       .  S
O161        C171   1.264       .  A
O161       Al163   1.929       .  S
O162        C175   1.267       .  A
O162       Al172   1.926       .  S
Al163       O176   1.883       .  S
Al163       O173   1.878       .  S
Al163       O168   1.778       .  S
O164        C171   1.258       .  A
O164       Al172   1.886       .  S
O165        C174   1.258       .  A
O165       Al172   1.884       .  S
O166       Al172   1.926       .  S
O167        C174   1.268       .  A
O168       Al172   1.778       .  S
O169        C170   1.259       .  A
C170       C1485   1.483       .  S
C171       C1521   1.483       .  S
C174       C1656   1.493       .  S
C175        O176   1.258       .  A
C175       C1473   1.486       .  S
O177        C192   1.263       .  A
O177       Al185   1.899       .  S
C178        O188   1.261       .  A
C178        O179   1.259       .  A
C178       C1449   1.487       .  S
O179       Al181   1.905       .  S
O180        C182   1.261       .  A
O180       Al181   1.900       .  S
Al181       O189   1.900       .  S
Al181       O191   1.905       .  S
Al181       O190   1.781       .  S
C182        O195   1.261       .  A
C182       C1461   1.485       .  S
O183        C193   1.261       .  A
O183       Al185   1.893       .  S
O184        C197   1.262       .  A
O184       Al194   1.903       .  S
Al185       O198   1.900       .  S
Al185       O195   1.910       .  S
Al185       O190   1.779       .  S
O186        C193   1.261       .  A
O186       Al194   1.903       .  S
O187        C196   1.260       .  A
O187       Al194   1.895       .  S
O188       Al194   1.892       .  S
O189        C196   1.262       .  A
O190       Al194   1.779       .  S
O191        C192   1.261       .  A
C192       C1425   1.488       .  S
C193       C1440   1.476       .  S
C196       C1800   1.484       .  S
C197        O198   1.259       .  A
C197       C1413   1.490       .  S
O199        C214   1.264       .  A
O199       Al207   1.914       .  S
C200        O210   1.262       .  A
C200        O201   1.260       .  A
C200       C1392   1.486       .  S
O201       Al203   1.903       .  S
O202        C204   1.261       .  A
O202       Al203   1.902       .  S
Al203       O211   1.903       .  S
Al203       O213   1.894       .  S
Al203       O212   1.781       .  S
C204        O217   1.260       .  A
C204       C1464   1.488       .  S
O205        C215   1.263       .  A
O205       Al207   1.902       .  S
O206        C219   1.263       .  A
O206       Al216   1.908       .  S
Al207       O220   1.905       .  S
Al207       O217   1.905       .  S
Al207       O212   1.784       .  S
O208        C215   1.259       .  A
O208       Al216   1.903       .  S
O209        C218   1.260       .  A
O209       Al216   1.897       .  S
O210       Al216   1.910       .  S
O211        C218   1.262       .  A
O212       Al216   1.784       .  S
O213        C214   1.261       .  A
C214       C1365   1.492       .  S
C215       C1401   1.491       .  S
C218       C1728   1.490       .  S
C219        O220   1.260       .  A
C219       C1380   1.494       .  S
O221        C236   1.264       .  A
O221       Al229   1.909       .  S
C222        O232   1.258       .  A
C222        O223   1.258       .  A
C222       C1452   1.477       .  S
O223       Al225   1.902       .  S
O224        C226   1.259       .  A
O224       Al225   1.893       .  S
Al225       O233   1.904       .  S
Al225       O235   1.889       .  S
Al225       O234   1.793       .  S
C226        O239   1.258       .  A
C226       C1353   1.473       .  S
O227        C237   1.263       .  A
O227       Al229   1.908       .  S
O228        C241   1.261       .  A
O228       Al238   1.902       .  S
Al229       O242   1.897       .  S
Al229       O239   1.895       .  S
Al229       O234   1.791       .  S
O230        C237   1.259       .  A
O230       Al238   1.898       .  S
O231        C240   1.258       .  A
O231       Al238   1.889       .  S
O232       Al238   1.889       .  S
O233        C240   1.262       .  A
O234       Al238   1.788       .  S
O235        C236   1.258       .  A
C236       C1329   1.485       .  S
C237       C1404   1.483       .  S
C240       C1692   1.487       .  S
C241        O242   1.258       .  A
C241       C1341   1.483       .  S
O243        C258   1.260       .  A
O243       Al251   1.889       .  S
C244        O254   1.260       .  A
C244        O245   1.264       .  A
C244       C1389   1.498       .  S
O245       Al247   1.923       .  S
O246        C248   1.257       .  A
O246       Al247   1.889       .  S
Al247       O255   1.888       .  S
Al247       O257   1.919       .  S
Al247       O256   1.781       .  S
C248        O261   1.259       .  A
C248       C1356   1.486       .  S
O249        C259   1.260       .  A
O249       Al251   1.890       .  S
O250        C263   1.263       .  A
O250       Al260   1.911       .  S
Al251       O264   1.895       .  S
Al251       O261   1.905       .  S
Al251       O256   1.780       .  S
O252        C259   1.263       .  A
O252       Al260   1.910       .  S
O253        C262   1.262       .  A
O253       Al260   1.907       .  S
O254       Al260   1.897       .  S
O255        C262   1.258       .  A
O256       Al260   1.782       .  S
O257        C258   1.266       .  A
C258       C1305   1.486       .  S
C259       C1437   1.485       .  S
C262       C1644   1.483       .  S
C263        O264   1.258       .  A
C263       C1320   1.489       .  S
O265        C280   1.259       .  A
O265       Al273   1.893       .  S
C266        O276   1.259       .  A
C266        O267   1.259       .  A
C266       C1281   1.486       .  S
O267       Al269   1.912       .  S
O268        C270   1.261       .  A
O268       Al269   1.892       .  S
Al269       O277   1.897       .  S
Al269       O279   1.905       .  S
Al269       O278   1.789       .  S
C270        O283   1.261       .  A
C270       C1269   1.485       .  S
O271        C281   1.258       .  A
O271       Al273   1.888       .  S
O272        C285   1.259       .  A
O272       Al282   1.891       .  S
Al273       O286   1.905       .  S
Al273       O283   1.909       .  S
Al273       O278   1.788       .  S
O274        C281   1.260       .  A
O274       Al282   1.909       .  S
O275        C284   1.262       .  A
O275       Al282   1.904       .  S
O276       Al282   1.892       .  S
O277        C284   1.262       .  A
O278       Al282   1.786       .  S
O279        C280   1.259       .  A
C280       C1596   1.474       .  S
C281       C1296   1.482       .  S
C284       C1428   1.478       .  S
C285        O286   1.262       .  A
C285       C1257   1.478       .  S
O287        C302   1.263       .  A
O287       Al295   1.908       .  S
C288        O298   1.261       .  A
C288        O289   1.257       .  A
C288       C1248   1.491       .  S
O289       Al291   1.893       .  S
O290        C292   1.263       .  A
O290       Al291   1.903       .  S
Al291       O299   1.894       .  S
Al291       O301   1.893       .  S
Al291       O300   1.782       .  S
C292        O305   1.260       .  A
C292       C1233   1.487       .  S
O293        C303   1.262       .  A
O293       Al295   1.894       .  S
O294        C307   1.263       .  A
O294       Al304   1.913       .  S
Al295       O308   1.892       .  S
Al295       O305   1.907       .  S
Al295       O300   1.782       .  S
O296        C303   1.262       .  A
O296       Al304   1.910       .  S
O297        C306   1.266       .  A
O297       Al304   1.914       .  S
O298       Al304   1.912       .  S
O299        C306   1.262       .  A
O300       Al304   1.783       .  S
O301        C302   1.258       .  A
C302       C1476   1.488       .  S
C303       C1293   1.491       .  S
C306       C1308   1.490       .  S
C307        O308   1.259       .  A
C307       C1221   1.494       .  S
O309        C324   1.259       .  A
O309       Al317   1.884       .  S
C310        O320   1.261       .  A
C310        O311   1.259       .  A
C310       C1284   1.490       .  S
O311       Al313   1.906       .  S
O312        C314   1.262       .  A
O312       Al313   1.903       .  S
Al313       O321   1.898       .  S
Al313       O323   1.910       .  S
Al313       O322   1.784       .  S
C314        O327   1.260       .  A
C314       C1236   1.485       .  S
O315        C325   1.258       .  A
O315       Al317   1.879       .  S
O316        C329   1.261       .  A
O316       Al326   1.903       .  S
Al317       O330   1.899       .  S
Al317       O327   1.906       .  S
Al317       O322   1.782       .  S
O318        C325   1.261       .  A
O318       Al326   1.909       .  S
O319        C328   1.262       .  A
O319       Al326   1.901       .  S
O320       Al326   1.900       .  S
O321        C328   1.263       .  A
O322       Al326   1.783       .  S
O323        C324   1.262       .  A
C324       C1500   1.472       .  S
C325       C1209   1.477       .  S
C328       C1368   1.476       .  S
C329        O330   1.259       .  A
C329       C1197   1.485       .  S
O331        C346   1.259       .  A
O331       Al339   1.894       .  S
C332        O342   1.262       .  A
C332        O333   1.261       .  A
C332       C1245   1.481       .  S
O333       Al335   1.907       .  S
O334        C336   1.263       .  A
O334       Al335   1.901       .  S
Al335       O343   1.905       .  S
Al335       O345   1.904       .  S
Al335       O344   1.780       .  S
C336        O349   1.261       .  A
C336       C1272   1.489       .  S
O337        C347   1.258       .  A
O337       Al339   1.883       .  S
O338        C351   1.262       .  A
O338       Al348   1.895       .  S
Al339       O352   1.905       .  S
Al339       O349   1.906       .  S
Al339       O344   1.781       .  S
O340        C347   1.259       .  A
O340       Al348   1.906       .  S
O341        C350   1.260       .  A
O341       Al348   1.900       .  S
O342       Al348   1.901       .  S
O343        C350   1.264       .  A
O344       Al348   1.782       .  S
O345        C346   1.261       .  A
C346       C1536   1.479       .  S
C347       C1212   1.483       .  S
C350       C1332   1.484       .  S
C351        O352   1.262       .  A
C351       C1185   1.486       .  S
O353        C368   1.262       .  A
O353       Al361   1.901       .  S
C354        O364   1.261       .  A
C354        O355   1.258       .  A
C354       C1149   1.486       .  S
O355       Al357   1.898       .  S
O356        C358   1.262       .  A
O356       Al357   1.911       .  S
Al357       O365   1.904       .  S
Al357       O367   1.896       .  S
Al357       O366   1.784       .  S
C358        O371   1.263       .  A
C358       C1176   1.496       .  S
O359        C369   1.262       .  A
O359       Al361   1.896       .  S
O360        C373   1.261       .  A
O360       Al370   1.904       .  S
Al361       O374   1.909       .  S
Al361       O371   1.913       .  S
Al361       O366   1.781       .  S
O362        C369   1.259       .  A
O362       Al370   1.899       .  S
O363        C372   1.258       .  A
O363       Al370   1.886       .  S
O364       Al370   1.896       .  S
O365        C372   1.263       .  A
O366       Al370   1.783       .  S
O367        C368   1.261       .  A
C368       C1125   1.487       .  S
C369       C1164   1.482       .  S
C372       C1785   1.485       .  S
C373        O374   1.263       .  A
C373       C1137   1.494       .  S
O375        C390   1.261       .  A
O375       Al383   1.902       .  S
C376        O386   1.261       .  A
C376        O377   1.259       .  A
C376       C1113   1.487       .  S
O377       Al379   1.902       .  S
O378        C380   1.263       .  A
O378       Al379   1.905       .  S
Al379       O387   1.909       .  S
Al379       O389   1.893       .  S
Al379       O388   1.781       .  S
C380        O393   1.263       .  A
C380       C1173   1.490       .  S
O381        C391   1.260       .  A
O381       Al383   1.894       .  S
O382        C395   1.260       .  A
O382       Al392   1.892       .  S
Al383       O396   1.912       .  S
Al383       O393   1.916       .  S
Al383       O388   1.784       .  S
O384        C391   1.258       .  A
O384       Al392   1.898       .  S
O385        C394   1.262       .  A
O385       Al392   1.899       .  S
O386       Al392   1.899       .  S
O387        C394   1.263       .  A
O388       Al392   1.782       .  S
O389        C390   1.260       .  A
C390       C1089   1.487       .  S
C391       C1104   1.486       .  S
C394       C1704   1.491       .  S
C395        O396   1.263       .  A
C395       C1080   1.481       .  S
O397        C412   1.261       .  A
O397       Al405   1.904       .  S
C398        O408   1.261       .  A
C398        O399   1.259       .  A
C398       C1116   1.482       .  S
O399       Al401   1.904       .  S
O400        C402   1.262       .  A
O400       Al401   1.900       .  S
Al401       O409   1.899       .  S
Al401       O411   1.891       .  S
Al401       O410   1.780       .  S
C402        O415   1.263       .  A
C402       C1065   1.491       .  S
O403        C413   1.260       .  A
O403       Al405   1.890       .  S
O404        C417   1.261       .  A
O404       Al414   1.896       .  S
Al405       O418   1.907       .  S
Al405       O415   1.917       .  S
Al405       O410   1.783       .  S
O406        C413   1.259       .  A
O406       Al414   1.904       .  S
O407        C416   1.262       .  A
O407       Al414   1.905       .  S
O408       Al414   1.896       .  S
O409        C416   1.261       .  A
O410       Al414   1.783       .  S
O411        C412   1.261       .  A
C412       C1041   1.487       .  S
C413       C1161   1.483       .  S
C416       C1752   1.489       .  S
C417        O418   1.263       .  A
C417       C1053   1.485       .  S
O419        C434   1.259       .  A
O419       Al427   1.900       .  S
C420        O430   1.259       .  A
C420        O421   1.257       .  A
C420       C1152   1.477       .  S
O421       Al423   1.900       .  S
O422        C424   1.262       .  A
O422       Al423   1.899       .  S
Al423       O431   1.902       .  S
Al423       O433   1.894       .  S
Al423       O432   1.787       .  S
C424        O437   1.263       .  A
C424       C1068   1.494       .  S
O425        C435   1.260       .  A
O425       Al427   1.892       .  S
O426        C439   1.259       .  A
O426       Al436   1.894       .  S
Al427       O440   1.908       .  S
Al427       O437   1.920       .  S
Al427       O432   1.786       .  S
O428        C435   1.259       .  A
O428       Al436   1.899       .  S
O429        C438   1.263       .  A
O429       Al436   1.896       .  S
O430       Al436   1.892       .  S
O431        C438   1.262       .  A
O432       Al436   1.786       .  S
O433        C434   1.259       .  A
C434       C1017   1.484       .  S
C435       C1101   1.480       .  S
C438       C1668   1.487       .  S
C439        O440   1.261       .  A
C439       C1029   1.472       .  S
O441        C456   1.261       .  A
O441       Al449   1.896       .  S
C442        O452   1.259       .  A
C442        O443   1.261       .  A
C442        C981   1.488       .  S
O443       Al445   1.907       .  S
O444        C446   1.258       .  A
O444       Al445   1.890       .  S
Al445       O453   1.884       .  S
Al445       O455   1.912       .  S
Al445       O454   1.779       .  S
C446        O459   1.263       .  A
C446        C993   1.486       .  S
O447        C457   1.259       .  A
O447       Al449   1.888       .  S
O448        C461   1.263       .  A
O448       Al458   1.902       .  S
Al449       O462   1.900       .  S
Al449       O459   1.911       .  S
Al449       O454   1.775       .  S
O450        C457   1.266       .  A
O450       Al458   1.929       .  S
O451        C460   1.266       .  A
O451       Al458   1.927       .  S
O452       Al458   1.894       .  S
O453        C460   1.259       .  A
O454       Al458   1.781       .  S
O455        C456   1.263       .  A
C456       C1056   1.488       .  S
C457       C1005   1.493       .  S
C460       C1512   1.482       .  S
C461        O462   1.260       .  A
C461        C972   1.489       .  S
O463        C478   1.263       .  A
O463       Al471   1.908       .  S
C464        O474   1.260       .  A
C464        O465   1.262       .  A
C464        C948   1.486       .  S
O465       Al467   1.906       .  S
O466        C468   1.261       .  A
O466       Al467   1.897       .  S
Al467       O475   1.904       .  S
Al467       O477   1.900       .  S
Al467       O476   1.781       .  S
C468        O481   1.261       .  A
C468        C957   1.485       .  S
O469        C479   1.261       .  A
O469       Al471   1.904       .  S
O470        C483   1.263       .  A
O470       Al480   1.899       .  S
Al471       O484   1.894       .  S
Al471       O481   1.901       .  S
Al471       O476   1.781       .  S
O472        C479   1.261       .  A
O472       Al480   1.906       .  S
O473        C482   1.263       .  A
O473       Al480   1.906       .  S
O474       Al480   1.899       .  S
O475        C482   1.262       .  A
O476       Al480   1.781       .  S
O477        C478   1.260       .  A
C478       C1032   1.487       .  S
C479       C1008   1.483       .  S
C482       C1488   1.482       .  S
C483        O484   1.260       .  A
C483        C933   1.485       .  S
O485        C500   1.258       .  A
O485       Al493   1.891       .  S
C486        O496   1.260       .  A
C486        O487   1.263       .  A
C486        C945   1.485       .  S
O487       Al489   1.917       .  S
O488        C490   1.258       .  A
O488       Al489   1.881       .  S
Al489       O497   1.892       .  S
Al489       O499   1.910       .  S
Al489       O498   1.786       .  S
C490        O503   1.263       .  A
C490        C996   1.481       .  S
O491        C501   1.258       .  A
O491       Al493   1.888       .  S
O492        C505   1.262       .  A
O492       Al502   1.890       .  S
Al493       O506   1.912       .  S
Al493       O503   1.913       .  S
Al493       O498   1.783       .  S
O494        C501   1.257       .  A
O494       Al502   1.905       .  S
O495        C504   1.262       .  A
O495       Al502   1.903       .  S
O496       Al502   1.892       .  S
O497        C504   1.259       .  A
O498       Al502   1.786       .  S
O499        C500   1.261       .  A
C500       C1140   1.481       .  S
C501        C921   1.488       .  S
C504       C1584   1.481       .  S
C505        O506   1.264       .  A
C505        C909   1.477       .  S
O507        C522   1.259       .  A
O507       Al515   1.897       .  S
C508        O518   1.261       .  A
C508        O509   1.261       .  A
C508        C984   1.473       .  S
O509       Al511   1.904       .  S
O510        C512   1.260       .  A
O510       Al511   1.890       .  S
Al511       O519   1.909       .  S
Al511       O521   1.901       .  S
Al511       O520   1.784       .  S
C512        O525   1.261       .  A
C512        C960   1.480       .  S
O513        C523   1.259       .  A
O513       Al515   1.897       .  S
O514        C527   1.261       .  A
O514       Al524   1.891       .  S
Al515       O528   1.903       .  S
Al515       O525   1.903       .  S
Al515       O520   1.785       .  S
O516        C523   1.258       .  A
O516       Al524   1.902       .  S
O517        C526   1.259       .  A
O517       Al524   1.897       .  S
O518       Al524   1.895       .  S
O519        C526   1.264       .  A
O520       Al524   1.784       .  S
O521        C522   1.261       .  A
C522       C1077   1.491       .  S
C523        C924   1.483       .  S
C526       C1548   1.488       .  S
C527        O528   1.262       .  A
C527        C897   1.474       .  S
O529        C544   1.263       .  A
O529       Al537   1.902       .  S
C530        O540   1.262       .  A
C530        O531   1.262       .  A
C530        C888   1.492       .  S
O531       Al533   1.916       .  S
O532        C534   1.261       .  A
O532       Al533   1.896       .  S
Al533       O541   1.906       .  S
Al533       O543   1.905       .  S
Al533       O542   1.782       .  S
C534        O547   1.260       .  A
C534        C873   1.473       .  S
O535        C545   1.260       .  A
O535       Al537   1.901       .  S
O536        C549   1.262       .  A
O536       Al546   1.901       .  S
Al537       O550   1.904       .  S
Al537       O547   1.898       .  S
Al537       O542   1.782       .  S
O538        C545   1.259       .  A
O538       Al546   1.903       .  S
O539        C548   1.260       .  A
O539       Al546   1.901       .  S
O540       Al546   1.903       .  S
O541        C548   1.263       .  A
O542       Al546   1.782       .  S
O543        C544   1.261       .  A
C544        C852   1.492       .  S
C545        C861   1.488       .  S
C548        C912   1.491       .  S
C549        O550   1.263       .  A
C549       C1260   1.491       .  S
O551        C566   1.259       .  A
O551       Al559   1.890       .  S
C552        O562   1.261       .  A
C552        O553   1.264       .  A
C552        C885   1.489       .  S
O553       Al555   1.921       .  S
O554        C556   1.262       .  A
O554       Al555   1.901       .  S
Al555       O563   1.912       .  S
Al555       O565   1.910       .  S
Al555       O564   1.786       .  S
C556        O569   1.259       .  A
C556        C825   1.490       .  S
O557        C567   1.259       .  A
O557       Al559   1.895       .  S
O558        C571   1.262       .  A
O558       Al568   1.896       .  S
Al559       O572   1.906       .  S
Al559       O569   1.902       .  S
Al559       O564   1.784       .  S
O560        C567   1.259       .  A
O560       Al568   1.902       .  S
O561        C570   1.260       .  A
O561       Al568   1.889       .  S
O562       Al568   1.894       .  S
O563        C570   1.262       .  A
O564       Al568   1.782       .  S
O565        C566   1.263       .  A
C566        C816   1.479       .  S
C567        C840   1.478       .  S
C570        C900   1.489       .  S
C571        O572   1.262       .  A
C571       C1188   1.482       .  S
O573        C588   1.263       .  A
O573       Al581   1.900       .  S
C574        O584   1.262       .  A
C574        O575   1.256       .  A
C574        C801   1.492       .  S
O575       Al577   1.894       .  S
O576        C578   1.260       .  A
O576       Al577   1.894       .  S
Al577       O585   1.889       .  S
Al577       O587   1.896       .  S
Al577       O586   1.779       .  S
C578        O591   1.262       .  A
C578        C876   1.488       .  S
O579        C589   1.261       .  A
O579       Al581   1.890       .  S
O580        C593   1.261       .  A
O580       Al590   1.900       .  S
Al581       O594   1.902       .  S
Al581       O591   1.912       .  S
Al581       O586   1.785       .  S
O582        C589   1.265       .  A
O582       Al590   1.914       .  S
O583        C592   1.263       .  A
O583       Al590   1.910       .  S
O584       Al590   1.909       .  S
O585        C592   1.261       .  A
O586       Al590   1.781       .  S
O587        C588   1.260       .  A
C588        C789   1.480       .  S
C589        C837   1.489       .  S
C592        C969   1.477       .  S
C593        O594   1.258       .  A
C593       C1200   1.489       .  S
O595        C610   1.260       .  A
O595       Al603   1.897       .  S
C596        O606   1.260       .  A
C596        O597   1.258       .  A
C596        C804   1.485       .  S
O597       Al599   1.906       .  S
O598        C600   1.260       .  A
O598       Al599   1.894       .  S
Al599       O607   1.889       .  S
Al599       O609   1.904       .  S
Al599       O608   1.787       .  S
C600        O613   1.260       .  A
C600        C828   1.486       .  S
O601        C611   1.261       .  A
O601       Al603   1.888       .  S
O602        C615   1.260       .  A
O602       Al612   1.902       .  S
Al603       O616   1.899       .  S
Al603       O613   1.911       .  S
Al603       O608   1.785       .  S
O604        C611   1.261       .  A
O604       Al612   1.909       .  S
O605        C614   1.261       .  A
O605       Al612   1.900       .  S
O606       Al612   1.898       .  S
O607        C614   1.260       .  A
O608       Al612   1.788       .  S
O609        C610   1.262       .  A
C610        C780   1.484       .  S
C611        C864   1.485       .  S
C614        C936   1.473       .  S
C615        O616   1.259       .  A
C615       C1224   1.481       .  S
O617        C632   1.263       .  A
O617       Al625   1.901       .  S
C618        O628   1.261       .  A
C618        O619   1.260       .  A
C618        C753   1.493       .  S
O619       Al621   1.909       .  S
O620        C622   1.258       .  A
O620       Al621   1.885       .  S
Al621       O629   1.888       .  S
Al621       O631   1.914       .  S
Al621       O630   1.781       .  S
C622        O635   1.263       .  A
C622        C744   1.486       .  S
O623        C633   1.260       .  A
O623       Al625   1.893       .  S
O624        C637   1.260       .  A
O624       Al634   1.898       .  S
Al625       O638   1.906       .  S
Al625       O635   1.915       .  S
Al625       O630   1.781       .  S
O626        C633   1.264       .  A
O626       Al634   1.919       .  S
O627        C636   1.264       .  A
O627       Al634   1.911       .  S
O628       Al634   1.898       .  S
O629        C636   1.260       .  A
O630       Al634   1.781       .  S
O631        C632   1.262       .  A
C632       C1344   1.493       .  S
C633        C765   1.494       .  S
C636       C1092   1.479       .  S
C637        O638   1.262       .  A
C637        C813   1.491       .  S
O639        C654   1.261       .  A
O639       Al647   1.897       .  S
C640        O650   1.261       .  A
C640        O641   1.263       .  A
C640        C717   1.492       .  S
O641       Al643   1.915       .  S
O642        C644   1.260       .  A
O642       Al643   1.889       .  S
Al643       O651   1.894       .  S
Al643       O653   1.904       .  S
Al643       O652   1.787       .  S
C644        O657   1.259       .  A
C644        C732   1.487       .  S
O645        C655   1.260       .  A
O645       Al647   1.903       .  S
O646        C659   1.261       .  A
O646       Al656   1.897       .  S
Al647       O660   1.908       .  S
Al647       O657   1.901       .  S
Al647       O652   1.790       .  S
O648        C655   1.259       .  A
O648       Al656   1.903       .  S
O649        C658   1.260       .  A
O649       Al656   1.902       .  S
O650       Al656   1.898       .  S
O651        C658   1.259       .  A
O652       Al656   1.787       .  S
O653        C654   1.260       .  A
C654       C1317   1.475       .  S
C655        C768   1.484       .  S
C658       C1020   1.484       .  S
C659        O660   1.263       .  A
C659        C777   1.489       .  S
O661        C676   1.261       .  A
O661       Al669   1.894       .  S
C662        O672   1.260       .  A
C662        O663   1.259       .  A
C662        C756   1.483       .  S
O663       Al665   1.907       .  S
O664        C666   1.257       .  A
O664       Al665   1.887       .  S
Al665       O673   1.885       .  S
Al665       O675   1.905       .  S
Al665       O674   1.790       .  S
C666        O679   1.258       .  A
C666        C729   1.477       .  S
O667        C677   1.261       .  A
O667       Al669   1.894       .  S
O668        C681   1.260       .  A
O668       Al678   1.901       .  S
Al669       O682   1.899       .  S
Al669       O679   1.904       .  S
Al669       O674   1.791       .  S
O670        C677   1.262       .  A
O670       Al678   1.909       .  S
O671        C680   1.260       .  A
O671       Al678   1.903       .  S
O672       Al678   1.896       .  S
O673        C680   1.258       .  A
O674       Al678   1.789       .  S
O675        C676   1.262       .  A
C676       C1416   1.477       .  S
C677        C705   1.481       .  S
C680       C1128   1.475       .  S
C681        O682   1.258       .  A
C681        C849   1.484       .  S
O683        C698   1.262       .  A
O683       Al691   1.897       .  S
C684        O694   1.260       .  A
C684        O685   1.262       .  A
C684        C720   1.486       .  S
O685       Al687   1.910       .  S
O686        C688   1.259       .  A
O686       Al687   1.892       .  S
Al687       O695   1.881       .  S
Al687       O697   1.913       .  S
Al687       O696   1.779       .  S
C688        O701   1.260       .  A
C688        C741   1.474       .  S
O689        C699   1.260       .  A
O689       Al691   1.885       .  S
O690        C703   1.262       .  A
O690       Al700   1.897       .  S
Al691       O704   1.895       .  S
Al691       O701   1.898       .  S
Al691       O696   1.779       .  S
O692        C699   1.263       .  A
O692       Al700   1.922       .  S
O693        C702   1.263       .  A
O693       Al700   1.916       .  S
O694       Al700   1.899       .  S
O695        C702   1.258       .  A
O696       Al700   1.785       .  S
O697        C698   1.263       .  A
C698       C1377   1.483       .  S
C699        C708   1.490       .  S
C702       C1044   1.474       .  S
C703        O704   1.259       .  A
C703        C792   1.480       .  S
C705        C706   1.403       .  A
C705        C710   1.413       .  A
C706        C707   1.402       .  A
C706        H711   1.085       .  S
C707        C708   1.419       .  A
C707        C714   1.444       .  S
C708        C709   1.406       .  A
C709        C710   1.397       .  A
C709        H712   1.085       .  S
C710        C713   1.445       .  S
C713        N715   1.157       .  T
C714        N716   1.157       .  T
C717        C718   1.410       .  A
C717        C722   1.416       .  A
C718        C719   1.403       .  A
C718        H723   1.084       .  S
C719        C720   1.412       .  A
C719        C726   1.444       .  S
C720        C721   1.405       .  A
C721        C722   1.399       .  A
C721        H724   1.085       .  S
C722        C725   1.444       .  S
C725        N727   1.157       .  T
C726        N728   1.157       .  T
C729        C730   1.402       .  A
C729        C734   1.413       .  A
C730        C731   1.399       .  A
C730        H735   1.085       .  S
C731        C732   1.419       .  A
C731        C738   1.445       .  S
C732        C733   1.405       .  A
C733        C734   1.396       .  A
C733        H736   1.085       .  S
C734        C737   1.444       .  S
C737        N739   1.157       .  T
C738        N740   1.158       .  T
C741        C742   1.403       .  A
C741        C746   1.409       .  A
C742        C743   1.395       .  A
C742        H747   1.085       .  S
C743        C744   1.416       .  A
C743        C750   1.444       .  S
C744        C745   1.409       .  A
C745        C746   1.399       .  A
C745        H748   1.084       .  S
C746        C749   1.444       .  S
C749        N751   1.157       .  T
C750        N752   1.157       .  T
C753        C754   1.406       .  A
C753        C758   1.420       .  A
C754        C755   1.401       .  A
C754        H759   1.085       .  S
C755        C756   1.414       .  A
C755        C762   1.444       .  S
C756        C757   1.402       .  A
C757        C758   1.401       .  A
C757        H760   1.085       .  S
C758        C761   1.444       .  S
C761        N763   1.157       .  T
C762        N764   1.157       .  T
C765        C766   1.411       .  A
C765        C770   1.418       .  A
C766        C767   1.403       .  A
C766        H771   1.084       .  S
C767        C768   1.410       .  A
C767        C774   1.444       .  S
C768        C769   1.403       .  A
C769        C770   1.399       .  A
C769        H772   1.083       .  S
C770        C773   1.444       .  S
C773        N775   1.157       .  T
C774        N776   1.157       .  T
C777        C778   1.409       .  A
C777        C782   1.415       .  A
C778        C779   1.401       .  A
C778        H783   1.085       .  S
C779        C780   1.413       .  A
C779        C786   1.445       .  S
C780        C781   1.406       .  A
C781        C782   1.399       .  A
C781        H784   1.085       .  S
C782        C785   1.444       .  S
C785        N787   1.157       .  T
C786        N788   1.157       .  T
C789        C790   1.402       .  A
C789        C794   1.418       .  A
C790        C791   1.398   1_545  A
C790        H795   1.085       .  S
C791        C792   1.417       .  A
C791        C798   1.445       .  S
C792        C793   1.401       .  A
C793        C794   1.396   1_565  A
C793        H796   1.085       .  S
C794        C797   1.445       .  S
C797        N799   1.157       .  T
C798        N800   1.157       .  T
C801        C802   1.405       .  A
C801        C806   1.421       .  A
C802        C803   1.402       .  A
C802        H807   1.085       .  S
C803        C804   1.416       .  A
C803        C810   1.443       .  S
C804        C805   1.401       .  A
C805        C806   1.399       .  A
C805        H808   1.085       .  S
C806        C809   1.445       .  S
C809        N811   1.158       .  T
C810        N812   1.157       .  T
C813        C814   1.409       .  A
C813        C818   1.417       .  A
C814        C815   1.399       .  A
C814        H819   1.084       .  S
C815        C816   1.411       .  A
C815        C822   1.445       .  S
C816        C817   1.402       .  A
C817        C818   1.400       .  A
C817        H820   1.083       .  S
C818        C821   1.443       .  S
C821        N823   1.157       .  T
C822        N824   1.157       .  T
C825        C826   1.405       .  A
C825        C830   1.419       .  A
C826        C827   1.401       .  A
C826        H831   1.083       .  S
C827        C828   1.417       .  A
C827        C834   1.444       .  S
C828        C829   1.402       .  A
C829        C830   1.398       .  A
C829        H832   1.083       .  S
C830        C833   1.444       .  S
C833        N835   1.157       .  T
C834        N836   1.157       .  T
C837        C838   1.409       .  A
C837        C842   1.418       .  A
C838        C839   1.399       .  A
C838        H843   1.084       .  S
C839        C840   1.409       .  A
C839        C846   1.443       .  S
C840        C841   1.404       .  A
C841        C842   1.399       .  A
C841        H844   1.085       .  S
C842        C845   1.445       .  S
C845        N847   1.158       .  T
C846        N848   1.157       .  T
C849        C850   1.402       .  A
C849        C854   1.416       .  A
C850        C851   1.400   1_565  A
C850        H855   1.085       .  S
C851        C852   1.421       .  A
C851        C858   1.445       .  S
C852        C853   1.406       .  A
C853        C854   1.401   1_545  A
C853        H856   1.085       .  S
C854        C857   1.445       .  S
C857        N859   1.157       .  T
C858        N860   1.157       .  T
C861        C862   1.406       .  A
C861        C866   1.418       .  A
C862        C863   1.402       .  A
C862        H867   1.085       .  S
C863        C864   1.417       .  A
C863        C870   1.445       .  S
C864        C865   1.402       .  A
C865        C866   1.396       .  A
C865        H868   1.085       .  S
C866        C869   1.445       .  S
C869        N871   1.157       .  T
C870        N872   1.158       .  T
C873        C874   1.402       .  A
C873        C878   1.407       .  A
C874        C875   1.397       .  A
C874        H879   1.086       .  S
C875        C876   1.416       .  A
C875        C882   1.443       .  S
C876        C877   1.411       .  A
C877        C878   1.400       .  A
C877        H880   1.084       .  S
C878        C881   1.444       .  S
C881        N883   1.157       .  T
C882        N884   1.157       .  T
C885        C886   1.404       .  A
C885        C890   1.417       .  A
C886        C887   1.401       .  A
C886        H891   1.085       .  S
C887        C888   1.418       .  A
C887        C894   1.444       .  S
C888        C889   1.405       .  A
C889        C890   1.402       .  A
C889        H892   1.085       .  S
C890        C893   1.444       .  S
C893        N895   1.157       .  T
C894        N896   1.157       .  T
C897        C898   1.404       .  A
C897        C902   1.408       .  A
C898        C899   1.402   1_655  A
C898        H903   1.084       .  S
C899        C900   1.415       .  A
C899        C906   1.443       .  S
C900        C901   1.410       .  A
C901        C902   1.394   1_455  A
C901        H904   1.084       .  S
C902        C905   1.445       .  S
C905        N907   1.157       .  T
C906        N908   1.157       .  T
C909        C910   1.400       .  A
C909        C914   1.411       .  A
C910        C911   1.397   1_655  A
C910        H915   1.085       .  S
C911        C912   1.422       .  A
C911        C918   1.445       .  S
C912        C913   1.408       .  A
C913        C914   1.401   1_455  A
C913        H916   1.084       .  S
C914        C917   1.444       .  S
C917        N919   1.157       .  T
C918        N920   1.158       .  T
C921        C922   1.404       .  A
C921        C926   1.419       .  A
C922        C923   1.397       .  A
C922        H927   1.085       .  S
C923        C924   1.415       .  A
C923        C930   1.443       .  S
C924        C925   1.403       .  A
C925        C926   1.401       .  A
C925        H928   1.085       .  S
C926        C929   1.443       .  S
C929        N931   1.157       .  T
C930        N932   1.157       .  T
C933        C934   1.406       .  A
C933        C938   1.421       .  A
C934        C935   1.397       .  A
C934        H939   1.084       .  S
C935        C936   1.411       .  A
C935        C942   1.444       .  S
C936        C937   1.399       .  A
C937        C938   1.396       .  A
C937        H940   1.085       .  S
C938        C941   1.445       .  S
C941        N943   1.158       .  T
C942        N944   1.157       .  T
C945        C946   1.408       .  A
C945        C950   1.413       .  A
C946        C947   1.402       .  A
C946        H951   1.085       .  S
C947        C948   1.414       .  A
C947        C954   1.444       .  S
C948        C949   1.406       .  A
C949        C950   1.396       .  A
C949        H952   1.084       .  S
C950        C953   1.443       .  S
C953        N955   1.157       .  T
C954        N956   1.157       .  T
C957        C958   1.409       .  A
C957        C962   1.414       .  A
C958        C959   1.397       .  A
C958        H963   1.085       .  S
C959        C960   1.411       .  A
C959        C966   1.445       .  S
C960        C961   1.406       .  A
C961        C962   1.399       .  A
C961        H964   1.085       .  S
C962        C965   1.444       .  S
C965        N967   1.157       .  T
C966        N968   1.157       .  T
C969        C970   1.400       .  A
C969        C974   1.412       .  A
C970        C971   1.396       .  A
C970        H975   1.085       .  S
C971        C972   1.421       .  A
C971        C978   1.445       .  S
C972        C973   1.407       .  A
C973        C974   1.401       .  A
C973        H976   1.084       .  S
C974        C977   1.444       .  S
C977        N979   1.157       .  T
C978        N980   1.157       .  T
C981        C982   1.410       .  A
C981        C986   1.417       .  A
C982        C983   1.399       .  A
C982        H987   1.084       .  S
C983        C984   1.407       .  A
C983        C990   1.444       .  S
C984        C985   1.402       .  A
C985        C986   1.398       .  A
C985        H988   1.086       .  S
C986        C989   1.443       .  S
C989        N991   1.157       .  T
C990        N992   1.157       .  T
C993        C994   1.407       .  A
C993        C998   1.417       .  A
C994        C995   1.396       .  A
C994        H999   1.084       .  S
C995        C996   1.413       .  A
C995       C1002   1.445       .  S
C996        C997   1.405       .  A
C997        C998   1.400       .  A
C997       H1000   1.085       .  S
C998       C1001   1.445       .  S
C1001      N1003   1.158       .  T
C1002      N1004   1.157       .  T
C1005      C1006   1.409       .  A
C1005      C1010   1.418       .  A
C1006      C1007   1.403       .  A
C1006      H1011   1.083       .  S
C1007      C1008   1.410       .  A
C1007      C1014   1.444       .  S
C1008      C1009   1.404       .  A
C1009      C1010   1.399       .  A
C1009      H1012   1.084       .  S
C1010      C1013   1.445       .  S
C1013      N1015   1.157       .  T
C1014      N1016   1.157       .  T
C1017      C1018   1.406       .  A
C1017      C1022   1.413       .  A
C1018      C1019   1.396       .  A
C1018      H1023   1.085       .  S
C1019      C1020   1.413       .  A
C1019      C1026   1.444       .  S
C1020      C1021   1.408       .  A
C1021      C1022   1.401       .  A
C1021      H1024   1.085       .  S
C1022      C1025   1.444       .  S
C1025      N1027   1.157       .  T
C1026      N1028   1.157       .  T
C1029      C1030   1.398       .  A
C1029      C1034   1.408       .  A
C1030      C1031   1.398       .  A
C1030      H1035   1.086       .  S
C1031      C1032   1.420       .  A
C1031      C1038   1.445       .  S
C1032      C1033   1.406       .  A
C1033      C1034   1.403       .  A
C1033      H1036   1.085       .  S
C1034      C1037   1.442       .  S
C1037      N1039   1.157       .  T
C1038      N1040   1.158       .  T
C1041      C1042   1.407       .  A
C1041      C1046   1.416       .  A
C1042      C1043   1.392       .  A
C1042      H1047   1.085       .  S
C1043      C1044   1.409       .  A
C1043      C1050   1.445       .  S
C1044      C1045   1.404       .  A
C1045      C1046   1.404       .  A
C1045      H1048   1.085       .  S
C1046      C1049   1.443       .  S
C1049      N1051   1.157       .  T
C1050      N1052   1.157       .  T
C1053      C1054   1.405       .  A
C1053      C1058   1.413       .  A
C1054      C1055   1.398   1_565  A
C1054      H1059   1.084       .  S
C1055      C1056   1.415       .  A
C1055      C1062   1.444       .  S
C1056      C1057   1.408       .  A
C1057      C1058   1.400   1_545  A
C1057      H1060   1.085       .  S
C1058      C1061   1.444       .  S
C1061      N1063   1.157       .  T
C1062      N1064   1.157       .  T
C1065      C1066   1.405       .  A
C1065      C1070   1.417       .  A
C1066      C1067   1.402       .  A
C1066      H1071   1.084       .  S
C1067      C1068   1.418       .  A
C1067      C1074   1.444       .  S
C1068      C1069   1.405       .  A
C1069      C1070   1.401       .  A
C1069      H1072   1.083       .  S
C1070      C1073   1.445       .  S
C1073      N1075   1.157       .  T
C1074      N1076   1.157       .  T
C1077      C1078   1.409       .  A
C1077      C1082   1.417       .  A
C1078      C1079   1.398       .  A
C1078      H1083   1.084       .  S
C1079      C1080   1.412       .  A
C1079      C1086   1.445       .  S
C1080      C1081   1.404       .  A
C1081      C1082   1.402       .  A
C1081      H1084   1.085       .  S
C1082      C1085   1.444       .  S
C1085      N1087   1.157       .  T
C1086      N1088   1.157       .  T
C1089      C1090   1.409       .  A
C1089      C1094   1.415       .  A
C1090      C1091   1.397   1_655  A
C1090      H1095   1.085       .  S
C1091      C1092   1.411       .  A
C1091      C1098   1.445       .  S
C1092      C1093   1.404       .  A
C1093      C1094   1.399   1_455  A
C1093      H1096   1.083       .  S
C1094      C1097   1.444       .  S
C1097      N1099   1.157       .  T
C1098      N1100   1.157       .  T
C1101      C1102   1.401       .  A
C1101      C1106   1.416       .  A
C1102      C1103   1.397       .  A
C1102      H1107   1.085       .  S
C1103      C1104   1.420       .  A
C1103      C1110   1.445       .  S
C1104      C1105   1.405       .  A
C1105      C1106   1.398       .  A
C1105      H1108   1.085       .  S
C1106      C1109   1.445       .  S
C1109      N1111   1.157       .  T
C1110      N1112   1.157       .  T
C1113      C1114   1.404       .  A
C1113      C1118   1.419       .  A
C1114      C1115   1.400       .  A
C1114      H1119   1.085       .  S
C1115      C1116   1.417       .  A
C1115      C1122   1.445       .  S
C1116      C1117   1.400       .  A
C1117      C1118   1.397       .  A
C1117      H1120   1.085       .  S
C1118      C1121   1.443       .  S
C1121      N1123   1.157       .  T
C1122      N1124   1.157       .  T
C1125      C1126   1.408       .  A
C1125      C1130   1.415       .  A
C1126      C1127   1.395   1_655  A
C1126      H1131   1.084       .  S
C1127      C1128   1.410       .  A
C1127      C1134   1.445       .  S
C1128      C1129   1.404       .  A
C1129      C1130   1.402   1_455  A
C1129      H1132   1.085       .  S
C1130      C1133   1.444       .  S
C1133      N1135   1.157       .  T
C1134      N1136   1.157       .  T
C1137      C1138   1.409       .  A
C1137      C1142   1.418       .  A
C1138      C1139   1.399   1_565  A
C1138      H1143   1.084       .  S
C1139      C1140   1.411       .  A
C1139      C1146   1.445       .  S
C1140      C1141   1.403       .  A
C1141      C1142   1.403   1_545  A
C1141      H1144   1.085       .  S
C1142      C1145   1.442       .  S
C1145      N1147   1.157       .  T
C1146      N1148   1.157       .  T
C1149      C1150   1.404       .  A
C1149      C1154   1.420       .  A
C1150      C1151   1.397       .  A
C1150      H1155   1.084       .  S
C1151      C1152   1.414       .  A
C1151      C1158   1.444       .  S
C1152      C1153   1.401       .  A
C1153      C1154   1.398       .  A
C1153      H1156   1.085       .  S
C1154      C1157   1.444       .  S
C1157      N1159   1.157       .  T
C1158      N1160   1.157       .  T
C1161      C1162   1.403       .  A
C1161      C1166   1.417       .  A
C1162      C1163   1.397       .  A
C1162      H1167   1.084       .  S
C1163      C1164   1.417       .  A
C1163      C1170   1.445       .  S
C1164      C1165   1.402       .  A
C1165      C1166   1.398       .  A
C1165      H1168   1.085       .  S
C1166      C1169   1.445       .  S
C1169      N1171   1.157       .  T
C1170      N1172   1.157       .  T
C1173      C1174   1.407       .  A
C1173      C1178   1.411       .  A
C1174      C1175   1.405       .  A
C1174      H1179   1.085       .  S
C1175      C1176   1.416       .  A
C1175      C1182   1.443       .  S
C1176      C1177   1.409       .  A
C1177      C1178   1.401       .  A
C1177      H1180   1.084       .  S
C1178      C1181   1.443       .  S
C1181      N1183   1.157       .  T
C1182      N1184   1.157       .  T
C1185      C1186   1.404       .  A
C1185      C1190   1.417       .  A
C1186      C1187   1.398   1_556  A
C1186      H1191   1.085       .  S
C1187      C1188   1.415       .  A
C1187      C1194   1.443       .  S
C1188      C1189   1.402       .  A
C1189      C1190   1.398   1_554  A
C1189      H1192   1.085       .  S
C1190      C1193   1.443       .  S
C1193      N1195   1.157       .  T
C1194      N1196   1.157       .  T
C1197      C1198   1.403       .  A
C1197      C1202   1.416       .  A
C1198      C1199   1.401   1_556  A
C1198      H1203   1.085       .  S
C1199      C1200   1.419       .  A
C1199      C1206   1.445       .  S
C1200      C1201   1.403       .  A
C1201      C1202   1.398   1_554  A
C1201      H1204   1.084       .  S
C1202      C1205   1.444       .  S
C1205      N1207   1.157       .  T
C1206      N1208   1.157       .  T
C1209      C1210   1.403       .  A
C1209      C1214   1.413       .  A
C1210      C1211   1.397       .  A
C1210      H1215   1.085       .  S
C1211      C1212   1.417       .  A
C1211      C1218   1.444       .  S
C1212      C1213   1.405       .  A
C1213      C1214   1.396       .  A
C1213      H1216   1.085       .  S
C1214      C1217   1.444       .  S
C1217      N1219   1.157       .  T
C1218      N1220   1.157       .  T
C1221      C1222   1.411       .  A
C1221      C1226   1.415       .  A
C1222      C1223   1.399       .  A
C1222      H1227   1.084       .  S
C1223      C1224   1.409       .  A
C1223      C1230   1.445       .  S
C1224      C1225   1.406       .  A
C1225      C1226   1.403       .  A
C1225      H1228   1.085       .  S
C1226      C1229   1.444       .  S
C1229      N1231   1.157       .  T
C1230      N1232   1.157       .  T
C1233      C1234   1.403       .  A
C1233      C1238   1.419       .  A
C1234      C1235   1.399       .  A
C1234      H1239   1.085       .  S
C1235      C1236   1.418       .  A
C1235      C1242   1.445       .  S
C1236      C1237   1.402       .  A
C1237      C1238   1.400       .  A
C1237      H1240   1.085       .  S
C1238      C1241   1.445       .  S
C1241      N1243   1.157       .  T
C1242      N1244   1.157       .  T
C1245      C1246   1.406       .  A
C1245      C1250   1.408       .  A
C1246      C1247   1.401       .  A
C1246      H1251   1.085       .  S
C1247      C1248   1.414       .  A
C1247      C1254   1.442       .  S
C1248      C1249   1.411       .  A
C1249      C1250   1.399       .  A
C1249      H1252   1.084       .  S
C1250      C1253   1.444       .  S
C1253      N1255   1.157       .  T
C1254      N1256   1.157       .  T
C1257      C1258   1.404       .  A
C1257      C1262   1.411       .  A
C1258      C1259   1.401       .  A
C1258      H1263   1.085       .  S
C1259      C1260   1.417       .  A
C1259      C1266   1.443       .  S
C1260      C1261   1.409       .  A
C1261      C1262   1.397       .  A
C1261      H1264   1.084       .  S
C1262      C1265   1.445       .  S
C1265      N1267   1.157       .  T
C1266      N1268   1.157       .  T
C1269      C1270   1.403       .  A
C1269      C1274   1.417       .  A
C1270      C1271   1.398       .  A
C1270      H1275   1.085       .  S
C1271      C1272   1.419       .  A
C1271      C1278   1.445       .  S
C1272      C1273   1.405       .  A
C1273      C1274   1.400       .  A
C1273      H1276   1.085       .  S
C1274      C1277   1.445       .  S
C1277      N1279   1.157       .  T
C1278      N1280   1.157       .  T
C1281      C1282   1.403       .  A
C1281      C1286   1.416       .  A
C1282      C1283   1.398       .  A
C1282      H1287   1.085       .  S
C1283      C1284   1.419       .  A
C1283      C1290   1.445       .  S
C1284      C1285   1.405       .  A
C1285      C1286   1.401       .  A
C1285      H1288   1.085       .  S
C1286      C1289   1.445       .  S
C1289      N1291   1.157       .  T
C1290      N1292   1.157       .  T
C1293      C1294   1.406       .  A
C1293      C1298   1.419       .  A
C1294      C1295   1.399       .  A
C1294      H1299   1.084       .  S
C1295      C1296   1.413       .  A
C1295      C1302   1.443       .  S
C1296      C1297   1.403       .  A
C1297      C1298   1.400       .  A
C1297      H1300   1.085       .  S
C1298      C1301   1.444       .  S
C1301      N1303   1.157       .  T
C1302      N1304   1.157       .  T
C1305      C1306   1.406       .  A
C1305      C1310   1.415       .  A
C1306      C1307   1.400       .  A
C1306      H1311   1.085       .  S
C1307      C1308   1.417       .  A
C1307      C1314   1.444       .  S
C1308      C1309   1.407       .  A
C1309      C1310   1.399       .  A
C1309      H1312   1.085       .  S
C1310      C1313   1.445       .  S
C1313      N1315   1.158       .  T
C1314      N1316   1.157       .  T
C1317      C1318   1.398       .  A
C1317      C1322   1.410       .  A
C1318      C1319   1.397       .  A
C1318      H1323   1.086       .  S
C1319      C1320   1.422       .  A
C1319      C1326   1.445       .  S
C1320      C1321   1.406       .  A
C1321      C1322   1.403       .  A
C1321      H1324   1.085       .  S
C1322      C1325   1.442       .  S
C1325      N1327   1.156       .  T
C1326      N1328   1.157       .  T
C1329      C1330   1.402       .  A
C1329      C1334   1.419       .  A
C1330      C1331   1.399       .  A
C1330      H1335   1.085       .  S
C1331      C1332   1.419       .  A
C1331      C1338   1.445       .  S
C1332      C1333   1.402       .  A
C1333      C1334   1.398       .  A
C1333      H1336   1.085       .  S
C1334      C1337   1.445       .  S
C1337      N1339   1.157       .  T
C1338      N1340   1.157       .  T
C1341      C1342   1.402       .  A
C1341      C1346   1.414       .  A
C1342      C1343   1.401   1_556  A
C1342      H1347   1.085       .  S
C1343      C1344   1.421       .  A
C1343      C1350   1.444       .  S
C1344      C1345   1.406       .  A
C1345      C1346   1.400   1_554  A
C1345      H1348   1.084       .  S
C1346      C1349   1.445       .  S
C1349      N1351   1.157       .  T
C1350      N1352   1.157       .  T
C1353      C1354   1.402       .  A
C1353      C1358   1.407       .  A
C1354      C1355   1.397       .  A
C1354      H1359   1.085       .  S
C1355      C1356   1.417       .  A
C1355      C1362   1.444       .  S
C1356      C1357   1.410       .  A
C1357      C1358   1.399       .  A
C1357      H1360   1.084       .  S
C1358      C1361   1.444       .  S
C1361      N1363   1.157       .  T
C1362      N1364   1.157       .  T
C1365      C1366   1.412       .  A
C1365      C1370   1.415       .  A
C1366      C1367   1.397   1_565  A
C1366      H1371   1.084       .  S
C1367      C1368   1.408       .  A
C1367      C1374   1.445       .  S
C1368      C1369   1.404       .  A
C1369      C1370   1.401   1_545  A
C1369      H1372   1.085       .  S
C1370      C1373   1.442       .  S
C1373      N1375   1.157       .  T
C1374      N1376   1.157       .  T
C1377      C1378   1.401       .  A
C1377      C1382   1.413       .  A
C1378      C1379   1.400   1_554  A
C1378      H1383   1.085       .  S
C1379      C1380   1.422       .  A
C1379      C1386   1.444       .  S
C1380      C1381   1.407       .  A
C1381      C1382   1.402   1_556  A
C1381      H1384   1.084       .  S
C1382      C1385   1.444       .  S
C1385      N1387   1.157       .  T
C1386      N1388   1.157       .  T
C1389      C1390   1.412       .  A
C1389      C1394   1.418       .  A
C1390      C1391   1.406       .  A
C1390      H1395   1.084       .  S
C1391      C1392   1.410       .  A
C1391      C1398   1.444       .  S
C1392      C1393   1.404       .  A
C1393      C1394   1.400       .  A
C1393      H1396   1.085       .  S
C1394      C1397   1.444       .  S
C1397      N1399   1.157       .  T
C1398      N1400   1.157       .  T
C1401      C1402   1.404       .  A
C1401      C1406   1.422       .  A
C1402      C1403   1.398       .  A
C1402      H1407   1.085       .  S
C1403      C1404   1.416       .  A
C1403      C1410   1.444       .  S
C1404      C1405   1.401       .  A
C1405      C1406   1.402       .  A
C1405      H1408   1.085       .  S
C1406      C1409   1.444       .  S
C1409      N1411   1.157       .  T
C1410      N1412   1.157       .  T
C1413      C1414   1.407       .  A
C1413      C1418   1.421       .  A
C1414      C1415   1.401       .  A
C1414      H1419   1.085       .  S
C1415      C1416   1.412       .  A
C1415      C1422   1.444       .  S
C1416      C1417   1.399       .  A
C1417      C1418   1.397       .  A
C1417      H1420   1.085       .  S
C1418      C1421   1.445       .  S
C1421      N1423   1.157       .  T
C1422      N1424   1.157       .  T
C1425      C1426   1.405       .  A
C1425      C1430   1.420       .  A
C1426      C1427   1.398   1_565  A
C1426      H1431   1.085       .  S
C1427      C1428   1.412       .  A
C1427      C1434   1.443       .  S
C1428      C1429   1.401       .  A
C1429      C1430   1.399   1_545  A
C1429      H1432   1.085       .  S
C1430      C1433   1.445       .  S
C1433      N1435   1.158       .  T
C1434      N1436   1.157       .  T
C1437      C1438   1.409       .  A
C1437      C1442   1.416       .  A
C1438      C1439   1.398       .  A
C1438      H1443   1.084       .  S
C1439      C1440   1.409       .  A
C1439      C1446   1.444       .  S
C1440      C1441   1.405       .  A
C1441      C1442   1.398       .  A
C1441      H1444   1.085       .  S
C1442      C1445   1.445       .  S
C1445      N1447   1.158       .  T
C1446      N1448   1.157       .  T
C1449      C1450   1.405       .  A
C1449      C1454   1.420       .  A
C1450      C1451   1.397       .  A
C1450      H1455   1.085       .  S
C1451      C1452   1.412       .  A
C1451      C1458   1.442       .  S
C1452      C1453   1.401       .  A
C1453      C1454   1.399       .  A
C1453      H1456   1.085       .  S
C1454      C1457   1.444       .  S
C1457      N1459   1.157       .  T
C1458      N1460   1.156       .  T
C1461      C1462   1.407       .  A
C1461      C1466   1.411       .  A
C1462      C1463   1.401       .  A
C1462      H1467   1.085       .  S
C1463      C1464   1.414       .  A
C1463      C1470   1.444       .  S
C1464      C1465   1.409       .  A
C1465      C1466   1.400       .  A
C1465      H1468   1.085       .  S
C1466      C1469   1.444       .  S
C1469      N1471   1.157       .  T
C1470      N1472   1.157       .  T
C1473      C1474   1.402       .  A
C1473      C1478   1.417       .  A
C1474      C1475   1.396       .  A
C1474      H1479   1.085       .  S
C1475      C1476   1.420       .  A
C1475      C1482   1.446       .  S
C1476      C1477   1.405       .  A
C1477      C1478   1.402       .  A
C1477      H1480   1.085       .  S
C1478      C1481   1.445       .  S
C1481      N1483   1.157       .  T
C1482      N1484   1.158       .  T
C1485      C1486   1.408       .  A
C1485      C1490   1.414       .  A
C1486      C1487   1.405       .  A
C1486      H1491   1.085       .  S
C1487      C1488   1.413       .  A
C1487      C1494   1.444       .  S
C1488      C1489   1.403       .  A
C1489      C1490   1.394       .  A
C1489      H1492   1.085       .  S
C1490      C1493   1.446       .  S
C1493      N1495   1.157       .  T
C1494      N1496   1.158       .  T
C1497      C1498   1.408       .  A
C1497      C1502   1.417       .  A
C1498      C1499   1.395       .  A
C1498      H1503   1.084       .  S
C1499      C1500   1.409       .  A
C1499      C1506   1.445       .  S
C1500      C1501   1.402       .  A
C1501      C1502   1.399       .  A
C1501      H1504   1.085       .  S
C1502      C1505   1.443       .  S
C1505      N1507   1.157       .  T
C1506      N1508   1.157       .  T
C1509      C1510   1.407       .  A
C1509      C1514   1.418       .  A
C1510      C1511   1.397   1_556  A
C1510      H1515   1.085       .  S
C1511      C1512   1.414       .  A
C1511      C1518   1.445       .  S
C1512      C1513   1.404       .  A
C1513      C1514   1.403   1_554  A
C1513      H1516   1.085       .  S
C1514      C1517   1.444       .  S
C1517      N1519   1.158       .  T
C1518      N1520   1.157       .  T
C1521      C1522   1.406       .  A
C1521      C1526   1.415       .  A
C1522      C1523   1.403       .  A
C1522      H1527   1.085       .  S
C1523      C1524   1.412       .  A
C1523      C1530   1.444       .  S
C1524      C1525   1.401       .  A
C1525      C1526   1.396       .  A
C1525      H1528   1.085       .  S
C1526      C1529   1.442       .  S
C1529      N1531   1.156       .  T
C1530      N1532   1.157       .  T
C1533      C1534   1.408       .  A
C1533      C1538   1.417       .  A
C1534      C1535   1.399   1_655  A
C1534      H1539   1.084       .  S
C1535      C1536   1.411       .  A
C1535      C1542   1.444       .  S
C1536      C1537   1.403       .  A
C1537      C1538   1.399   1_455  A
C1537      H1540   1.085       .  S
C1538      C1541   1.444       .  S
C1541      N1543   1.157       .  T
C1542      N1544   1.157       .  T
C1545      C1546   1.402       .  A
C1545      C1550   1.416       .  A
C1546      C1547   1.397   1_556  A
C1546      H1551   1.085       .  S
C1547      C1548   1.420       .  A
C1547      C1554   1.445       .  S
C1548      C1549   1.405       .  A
C1549      C1550   1.402   1_554  A
C1549      H1552   1.085       .  S
C1550      C1553   1.444       .  S
C1553      N1555   1.157       .  T
C1554      N1556   1.157       .  T
C1557      C1558   1.406       .  A
C1557      C1562   1.418       .  A
C1558      C1559   1.401       .  A
C1558      H1563   1.085       .  S
C1559      C1560   1.417       .  A
C1559      C1566   1.445       .  S
C1560      C1561   1.405       .  A
C1561      C1562   1.397       .  A
C1561      H1564   1.085       .  S
C1562      C1565   1.445       .  S
C1565      N1567   1.157       .  T
C1566      N1568   1.157       .  T
C1569      C1570   1.412       .  A
C1569      C1574   1.417       .  A
C1570      C1571   1.402       .  A
C1570      H1575   1.084       .  S
C1571      C1572   1.408       .  A
C1571      C1578   1.444       .  S
C1572      C1573   1.403       .  A
C1573      C1574   1.399       .  A
C1573      H1576   1.085       .  S
C1574      C1577   1.444       .  S
C1577      N1579   1.157       .  T
C1578      N1580   1.157       .  T
C1581      C1582   1.407       .  A
C1581      C1586   1.414       .  A
C1582      C1583   1.397       .  A
C1582      H1587   1.085       .  S
C1583      C1584   1.413       .  A
C1583      C1590   1.445       .  S
C1584      C1585   1.406       .  A
C1585      C1586   1.397       .  A
C1585      H1588   1.085       .  S
C1586      C1589   1.445       .  S
C1589      N1591   1.157       .  T
C1590      N1592   1.157       .  T
C1593      C1594   1.409       .  A
C1593      C1598   1.418       .  A
C1594      C1595   1.399   1_655  A
C1594      H1599   1.084       .  S
C1595      C1596   1.408       .  A
C1595      C1602   1.445       .  S
C1596      C1597   1.402       .  A
C1597      C1598   1.402   1_455  A
C1597      H1600   1.085       .  S
C1598      C1601   1.444       .  S
C1601      N1603   1.158       .  T
C1602      N1604   1.157       .  T
C1605      C1606   1.404       .  A
C1605      C1610   1.417       .  A
C1606      C1607   1.400       .  A
C1606      H1611   1.084       .  S
C1607      C1608   1.420       .  A
C1607      C1614   1.445       .  S
C1608      C1609   1.406       .  A
C1609      C1610   1.404       .  A
C1609      H1612   1.085       .  S
C1610      C1613   1.444       .  S
C1613      N1615   1.157       .  T
C1614      N1616   1.157       .  T
C1617      C1618   1.403       .  A
C1617      C1622   1.417       .  A
C1618      C1619   1.398       .  A
C1618      H1623   1.085       .  S
C1619      C1620   1.416       .  A
C1619      C1626   1.445       .  S
C1620      C1621   1.403       .  A
C1621      C1622   1.398       .  A
C1621      H1624   1.085       .  S
C1622      C1625   1.444       .  S
C1625      N1627   1.157       .  T
C1626      N1628   1.157       .  T
C1629      C1630   1.404       .  A
C1629      C1634   1.408       .  A
C1630      C1631   1.396       .  A
C1630      H1635   1.085       .  S
C1631      C1632   1.415       .  A
C1631      C1638   1.445       .  S
C1632      C1633   1.409       .  A
C1633      C1634   1.396       .  A
C1633      H1636   1.084       .  S
C1634      C1637   1.444       .  S
C1637      N1639   1.157       .  T
C1638      N1640   1.158       .  T
C1641      C1642   1.407       .  A
C1641      C1646   1.415       .  A
C1642      C1643   1.396       .  A
C1642      H1647   1.085       .  S
C1643      C1644   1.414       .  A
C1643      C1650   1.445       .  S
C1644      C1645   1.406       .  A
C1645      C1646   1.400       .  A
C1645      H1648   1.085       .  S
C1646      C1649   1.444       .  S
C1649      N1651   1.157       .  T
C1650      N1652   1.157       .  T
C1653      C1654   1.405       .  A
C1653      C1658   1.419       .  A
C1654      C1655   1.401       .  A
C1654      H1659   1.085       .  S
C1655      C1656   1.419       .  A
C1655      C1662   1.445       .  S
C1656      C1657   1.405       .  A
C1657      C1658   1.400       .  A
C1657      H1660   1.085       .  S
C1658      C1661   1.444       .  S
C1661      N1663   1.157       .  T
C1662      N1664   1.157       .  T
C1665      C1666   1.406       .  A
C1665      C1670   1.412       .  A
C1666      C1667   1.403       .  A
C1666      H1671   1.085       .  S
C1667      C1668   1.415       .  A
C1667      C1674   1.444       .  S
C1668      C1669   1.406       .  A
C1669      C1670   1.394       .  A
C1669      H1672   1.085       .  S
C1670      C1673   1.444       .  S
C1673      N1675   1.157       .  T
C1674      N1676   1.157       .  T
C1677      C1678   1.401       .  A
C1677      C1682   1.410       .  A
C1678      C1679   1.397       .  A
C1678      H1683   1.085       .  S
C1679      C1680   1.421       .  A
C1679      C1686   1.445       .  S
C1680      C1681   1.405       .  A
C1681      C1682   1.398       .  A
C1681      H1684   1.084       .  S
C1682      C1685   1.442       .  S
C1685      N1687   1.156       .  T
C1686      N1688   1.158       .  T
C1689      C1690   1.401       .  A
C1689      C1694   1.416       .  A
C1690      C1691   1.397   1_655  A
C1690      H1695   1.085       .  S
C1691      C1692   1.419       .  A
C1691      C1698   1.445       .  S
C1692      C1693   1.405       .  A
C1693      C1694   1.401   1_455  A
C1693      H1696   1.085       .  S
C1694      C1697   1.445       .  S
C1697      N1699   1.157       .  T
C1698      N1700   1.157       .  T
C1701      C1702   1.407       .  A
C1701      C1706   1.411       .  A
C1702      C1703   1.402   1_556  A
C1702      H1707   1.085       .  S
C1703      C1704   1.415       .  A
C1703      C1710   1.444       .  S
C1704      C1705   1.410       .  A
C1705      C1706   1.398   1_554  A
C1705      H1708   1.085       .  S
C1706      C1709   1.444       .  S
C1709      N1711   1.157       .  T
C1710      N1712   1.157       .  T
C1713      C1714   1.407       .  A
C1713      C1718   1.412       .  A
C1714      C1715   1.398       .  A
C1714      H1719   1.085       .  S
C1715      C1716   1.414       .  A
C1715      C1722   1.445       .  S
C1716      C1717   1.407       .  A
C1717      C1718   1.399       .  A
C1717      H1720   1.085       .  S
C1718      C1721   1.443       .  S
C1721      N1723   1.157       .  T
C1722      N1724   1.157       .  T
C1725      C1726   1.399       .  A
C1725      C1730   1.411       .  A
C1726      C1727   1.396       .  A
C1726      H1731   1.085       .  S
C1727      C1728   1.421       .  A
C1727      C1734   1.445       .  S
C1728      C1729   1.408       .  A
C1729      C1730   1.401       .  A
C1729      H1732   1.084       .  S
C1730      C1733   1.445       .  S
C1733      N1735   1.157       .  T
C1734      N1736   1.157       .  T
C1737      C1738   1.402       .  A
C1737      C1742   1.411       .  A
C1738      C1739   1.401   1_565  A
C1738      H1743   1.085       .  S
C1739      C1740   1.421       .  A
C1739      C1746   1.444       .  S
C1740      C1741   1.407       .  A
C1741      C1742   1.400   1_545  A
C1741      H1744   1.084       .  S
C1742      C1745   1.442       .  S
C1745      N1747   1.156       .  T
C1746      N1748   1.158       .  T
C1749      C1750   1.404       .  A
C1749      C1754   1.411       .  A
C1750      C1751   1.399   1_556  A
C1750      H1755   1.085       .  S
C1751      C1752   1.416       .  A
C1751      C1758   1.444       .  S
C1752      C1753   1.410       .  A
C1753      C1754   1.399   1_554  A
C1753      H1756   1.085       .  S
C1754      C1757   1.445       .  S
C1757      N1759   1.157       .  T
C1758      N1760   1.157       .  T
C1761      C1762   1.402       .  A
C1761      C1766   1.413       .  A
C1762      C1763   1.401       .  A
C1762      H1767   1.085       .  S
C1763      C1764   1.419       .  A
C1763      C1770   1.444       .  S
C1764      C1765   1.407       .  A
C1765      C1766   1.400       .  A
C1765      H1768   1.085       .  S
C1766      C1769   1.443       .  S
C1769      N1771   1.157       .  T
C1770      N1772   1.157       .  T
C1773      C1774   1.407       .  A
C1773      C1778   1.419       .  A
C1774      C1775   1.399       .  A
C1774      H1779   1.083       .  S
C1775      C1776   1.413       .  A
C1775      C1782   1.444       .  S
C1776      C1777   1.404       .  A
C1777      C1778   1.402       .  A
C1777      H1780   1.084       .  S
C1778      C1781   1.444       .  S
C1781      N1783   1.157       .  T
C1782      N1784   1.157       .  T
C1785      C1786   1.407       .  A
C1785      C1790   1.422       .  A
C1786      C1787   1.400       .  A
C1786      H1791   1.084       .  S
C1787      C1788   1.412       .  A
C1787      C1794   1.445       .  S
C1788      C1789   1.398       .  A
C1789      C1790   1.392       .  A
C1789      H1792   1.086       .  S
C1790      C1793   1.445       .  S
C1793      N1795   1.157       .  T
C1794      N1796   1.157       .  T
C1797      C1798   1.401       .  A
C1797      C1802   1.415       .  A
C1798      C1799   1.396   1_655  A
C1798      H1803   1.085       .  S
C1799      C1800   1.418       .  A
C1799      C1806   1.445       .  S
C1800      C1801   1.405       .  A
C1801      C1802   1.399   1_455  A
C1801      H1804   1.085       .  S
C1802      C1805   1.445       .  S
C1805      N1807   1.157       .  T
C1806      N1808   1.157       .  T
C1809      C1810   1.405       .  A
C1809      C1814   1.407       .  A
C1810      C1811   1.403   1_565  A
C1810      H1815   1.085       .  S
C1811      C1812   1.415       .  A
C1811      C1818   1.444       .  S
C1812      C1813   1.410       .  A
C1813      C1814   1.395   1_545  A
C1813      H1816   1.084       .  S
C1814      C1817   1.445       .  S
C1817      N1819   1.157       .  T
C1818      N1820   1.157       .  T
C1821      C1822   1.402       .  A
C1821      C1826   1.406       .  A
C1822      C1823   1.399       .  A
C1822      H1827   1.086       .  S
C1823      C1824   1.418       .  A
C1823      C1830   1.443       .  S
C1824      C1825   1.411       .  A
C1825      C1826   1.399       .  A
C1825      H1828   1.084       .  S
C1826      C1829   1.444       .  S
C1829      N1831   1.157       .  T
C1830      N1832   1.157       .  T
C1833      C1834   1.404       .  A
C1833      C1838   1.418       .  A
C1834      C1835   1.400       .  A
C1834      H1839   1.085       .  S
C1835      C1836   1.417       .  A
C1835      C1842   1.444       .  S
C1836      C1837   1.402       .  A
C1837      C1838   1.397       .  A
C1837      H1840   1.085       .  S
C1838      C1841   1.444       .  S
C1841      N1843   1.157       .  T
C1842      N1844   1.157       .  T
C1845      C1846   1.407       .  A
C1845      C1850   1.418       .  A
C1846      C1847   1.399       .  A
C1846      H1851   1.085       .  S
C1847      C1848   1.414       .  A
C1847      C1854   1.445       .  S
C1848      C1849   1.401       .  A
C1849      C1850   1.395       .  A
C1849      H1852   1.085       .  S
C1850      C1853   1.445       .  S
C1853      N1855   1.157       .  T
C1854      N1856   1.157       .  T
