geometry optimzed in LAMMPS
_audit_creation_date              2020-11-30 
_audit_creation_method            'lammps2cif' 
_symmetry_space_group_name_H-M    'P1' 
_symmetry_Int_Tables_number       1 
_symmetry_cell_setting            triclinic 
loop_ 
_symmetry_equiv_pos_as_xyz 
  x,y,z 
_cell_length_a                    39.50663906 
_cell_length_b                    39.699380084084794 
_cell_length_c                    39.713240363865886 
_cell_angle_alpha                 89.93802926051866 
_cell_angle_beta                  89.89682690303519 
_cell_angle_gamma                 90.07283211694494 
loop_ 
_atom_site_label 
_atom_site_type_symbol 
_atom_site_fract_x 
_atom_site_fract_y 
_atom_site_fract_z 
_atom_site_charge 
N1          N  0.00879025  0.25704991  0.19799994    -0.36500
N2          N  0.00876920  0.30269025  0.25573181    -0.57000
N3          N  0.00842985  0.24504471  0.30143747    -0.36500
N4          N  0.00524478  0.19934538  0.24368309    -0.57000
C5          C  0.00236371  0.28673209  0.18231657     0.27100
C6          C  0.00119205  0.23206538  0.17598628     0.27100
C7          C  0.00255225  0.27024373  0.32372857     0.27100
C8          C  0.00152444  0.21557000  0.31726836     0.27100
C9          C  0.01247526  0.32576034  0.23079513     0.35700
C10         C  0.01270750  0.31929174  0.28527346     0.35700
C11         C  0.00851378  0.18255389  0.21418378     0.35700
C12         C  0.00808307  0.17612160  0.26851417     0.35700
C13         C  0.99121365  0.28034820  0.14980444    -0.21700
C14         C  0.99026268  0.24600428  0.14593150    -0.21700
C15         C  0.99201228  0.25653777  0.35413559    -0.21700
C16         C  0.99163133  0.22214431  0.35016857    -0.21700
C17         C  0.01861594  0.35721401  0.24461327    -0.22800
C18         C  0.01900860  0.35309612  0.27898440    -0.22800
C19         C  0.01316103  0.14849210  0.22035006    -0.22800
C20         C  0.01243348  0.14436725  0.25466550    -0.22800
C21         C  0.00717091  0.31951370  0.19596950    -0.18100
C22         C  0.00453659  0.19696627  0.18171658    -0.18100
C23         C  0.00547443  0.18280108  0.30351087    -0.18100
C24         C  0.00727273  0.30524637  0.31783662    -0.18100
H25         H  0.98439321  0.29845342  0.13063197     0.14800
H26         H  0.98235504  0.23280457  0.12344217     0.14800
H27         H  0.98542431  0.26987455  0.37697449     0.14800
H28         H  0.98482734  0.20410332  0.36947493     0.14800
H29         H  0.02170642  0.38086741  0.23139444     0.13000
H30         H  0.02254928  0.37297840  0.29727449     0.13000
H31         H  0.01608288  0.12854417  0.20202031     0.13000
H32         H  0.01487410  0.12065459  0.26791459     0.13000
H33         H  0.02067521  0.25406446  0.22109115     0.26300
H34         H  0.01974644  0.24753409  0.27798480     0.26300
O35         O  0.99986981  0.10275615  0.04390884    -0.86300
O36         O  0.00064269  0.41186337  0.06329018    -0.86500
O37         O  0.44712228  0.00910252  0.10101410    -0.88200
O38         O  0.05761494  0.00715924  0.09361811    -0.86900
O39         O  0.09589766  0.50318189  0.05215986    -0.86500
O40         O  0.40539840  0.50278346  0.06001996    -0.87900
O41         O  0.00128644  0.45604559  0.10067768    -0.86400
O42         O  0.00099212  0.06619737  0.08882027    -0.86000
Zr43       Zr  0.99979441  0.50863000  0.06789641     2.84300
O44         O  0.03399762  0.47247056  0.03589404    -1.07900
O45         O  0.46542081  0.03993802  0.03404670    -1.08700
C46         C  0.00048933  0.09618019  0.07583567     1.06800
C47         C  0.00139849  0.42424736  0.09345352     1.06700
C48         C  0.41581160  0.00555080  0.09227734     1.09700
C49         C  0.08847306  0.00426866  0.08331690     1.07500
H50         H  0.45424984  0.45685849  0.05386885     0.33000
O51         O  0.46767692  0.47033981  0.03866456    -1.28900
H52         H  0.04909147  0.05360233  0.04184082     0.32700
O53         O  0.03477162  0.03841428  0.02933114    -1.30600
O54         O  0.00243361  0.40031869  0.45504717    -0.86300
O55         O  0.00223279  0.09248071  0.43634880    -0.87800
O56         O  0.40451243  0.45019933  0.50406634    -0.86400
O57         O  0.09743482  0.44967899  0.49870519    -0.86500
O58         O  0.09712770  0.05777478  0.49685003    -0.86200
O59         O  0.40590632  0.06166209  0.49824156    -0.86000
O60         O  0.43973812  0.49566819  0.40915199    -0.86300
O61         O  0.04944697  0.49482042  0.40165514    -0.85800
O62         O  0.40066856  0.50081932  0.45157744    -0.86900
O63         O  0.09268758  0.50022233  0.43977536    -0.86000
O64         O  0.44539893  0.40927635  0.50764357    -0.86400
O65         O  0.44876167  0.10036019  0.49278626    -0.86200
O66         O  0.05618850  0.09861278  0.49207744    -0.85800
O67         O  0.05740946  0.40850802  0.50600840    -0.86200
O68         O  0.99871900  0.43704389  0.41055571    -0.86500
O69         O  0.00017135  0.04768890  0.39975127    -0.87800
Zr70       Zr  0.00136775  0.43450980  0.50639097     2.83100
Zr71       Zr  0.00069714  0.07072667  0.49412190     2.83500
Zr72       Zr  0.43220441  0.50516619  0.50379430     2.84100
Zr73       Zr  0.06835362  0.50325087  0.49631947     2.83400
Zr74       Zr  0.99648819  0.49515817  0.43206307     2.84200
O75         O  0.03374998  0.03287009  0.46319119    -1.08400
O76         O  0.46496671  0.46749935  0.47238554    -1.07900
C77         C  0.00138335  0.40703159  0.42320582     1.06700
C78         C  0.00173407  0.07951533  0.40647588     1.09400
C79         C  0.41442003  0.41923807  0.50579230     1.06900
C80         C  0.08829923  0.41874677  0.50229259     1.07300
C81         C  0.08737076  0.08882610  0.49391925     1.06900
C82         C  0.41737721  0.09216041  0.49530198     1.06400
C83         C  0.40890809  0.49737939  0.42037695     1.06800
C84         C  0.08093633  0.49682345  0.40958755     1.06300
H85         H  0.45092747  0.04792946  0.44888209     0.33000
O86         O  0.46501025  0.03475196  0.46379568    -1.29500
H87         H  0.04715848  0.45052924  0.45408250     0.33000
O88         O  0.03328146  0.46547723  0.46741255    -1.30900
N89         N  0.24924911  0.98072800  0.20033495    -0.36500
N90         N  0.30046460  0.97589501  0.25350292    -0.57000
N91         N  0.24741519  0.98119286  0.30324516    -0.36500
N92         N  0.19621873  0.98492280  0.25017163    -0.57000
C93         C  0.27764685  0.98900718  0.18299741     0.27100
C94         C  0.22258171  0.99003301  0.18098419     0.27100
C95         C  0.27372611  0.97375665  0.32375812     0.27100
C96         C  0.21902090  0.97952561  0.32215765     0.27100
C97         C  0.32150654  0.97665902  0.22668605     0.35700
C98         C  0.32025915  0.97481340  0.28123801     0.35700
C99         C  0.17617859  0.98408556  0.22259090     0.35700
C100        C  0.17546426  0.98783193  0.27707277     0.35700
C101        C  0.26878904  0.00380577  0.15257727    -0.21700
C102        C  0.23413783  0.00432654  0.15126289    -0.21700
C103        C  0.26188513  0.96734502  0.35602174    -0.21700
C104        C  0.22738361  0.97067734  0.35497475    -0.21700
C105        C  0.35485323  0.97496809  0.23747654    -0.22800
C106        C  0.35405864  0.97453236  0.27197798    -0.22800
C107        C  0.14246467  0.98593866  0.23207657    -0.22800
C108        C  0.14204675  0.98928490  0.26639538    -0.22800
C109        C  0.31150858  0.98286995  0.19300763    -0.18100
C110        C  0.18795115  0.98569282  0.18894126    -0.18100
C111        C  0.18577608  0.98689393  0.31124529    -0.18100
C112        C  0.30838272  0.97409489  0.31484203    -0.18100
H113        H  0.28560246  0.01313146  0.13313537     0.14800
H114        H  0.21912601  0.01423449  0.13074891     0.14800
H115        H  0.27660558  0.96098995  0.37809761     0.14800
H116        H  0.21042926  0.96745593  0.37618641     0.14800
H117        H  0.37755868  0.97542595  0.22221285     0.13000
H118        H  0.37593500  0.97407944  0.28833153     0.13000
H119        H  0.12040408  0.98609460  0.21597510     0.13000
H120        H  0.11947425  0.99186251  0.28162576     0.13000
H121        H  0.24808816  0.96658795  0.22238785     0.26300
H122        H  0.24889226  0.99055046  0.27890365     0.26300
N123        N  0.25285128  0.20331503  0.49196207    -0.36500
N124        N  0.30367288  0.25598198  0.49513969    -0.57000
N125        N  0.25061822  0.30558816  0.50161103    -0.36500
N126        N  0.19975134  0.25322346  0.50101692    -0.57000
C127        C  0.28120393  0.18446172  0.49522710     0.27100
C128        C  0.22593984  0.18288202  0.49750389     0.27100
C129        C  0.27810645  0.32386277  0.51012360     0.27100
C130        C  0.22325549  0.32236538  0.51310280     0.27100
C131        C  0.32363146  0.23005002  0.48590224     0.35700
C132        C  0.32202644  0.28424533  0.49021034     0.35700
C133        C  0.18081715  0.22631232  0.49225410     0.35700
C134        C  0.18010263  0.28065551  0.49638842     0.35700
C135        C  0.27211685  0.15144804  0.50239719    -0.21700
C136        C  0.23731869  0.15034699  0.50319652    -0.21700
C137        C  0.26821250  0.35253272  0.52744764    -0.21700
C138        C  0.23343045  0.35161327  0.52928193    -0.21700
C139        C  0.35488466  0.24189302  0.47513121    -0.22800
C140        C  0.35386102  0.27631485  0.47787979    -0.22800
C141        C  0.14881916  0.23671007  0.48238481    -0.22800
C142        C  0.14867618  0.27125271  0.48419467    -0.22800
C143        C  0.31486032  0.19574927  0.48942605    -0.18100
C144        C  0.19143379  0.19245831  0.49534919    -0.18100
C145        C  0.18944608  0.31356651  0.50595419    -0.18100
C146        C  0.31140454  0.31672593  0.49971482    -0.18100
H147        H  0.28873012  0.13009516  0.50592515     0.14800
H148        H  0.22216285  0.12797373  0.50722097     0.14800
H149        H  0.28431801  0.37246336  0.53689356     0.14800
H150        H  0.21740070  0.37067361  0.54046634     0.14800
H151        H  0.37630749  0.22724916  0.46653243     0.13000
H152        H  0.37437076  0.29347600  0.47205823     0.13000
H153        H  0.12770576  0.22116632  0.47470875     0.13000
H154        H  0.12745262  0.28747926  0.47843950     0.13000
H155        H  0.25175164  0.22780828  0.48293767     0.26300
H156        H  0.25026373  0.28557009  0.48472916     0.26300
C157        C  0.36124595  0.33884525  0.03113156    -0.05600
C158        C  0.33698525  0.34393780  0.50099805     0.00300
C159        C  0.33913080  0.36907748  0.47581854    -0.08300
C160        C  0.36465568  0.39359953  0.47850290    -0.05700
C161        C  0.38812366  0.39294780  0.50500891     0.00300
C162        C  0.38762646  0.36275389  0.03308843    -0.08200
C163        C  0.41237501  0.36158470  0.06233635     0.62200
H164        H  0.35910370  0.31919778  0.04995911     0.13000
H165        H  0.36681279  0.41324245  0.45964742     0.12900
C166        C  0.31494141  0.36951015  0.44610825     0.62400
F167        F  0.40417339  0.33651956  0.08521608    -0.22700
F168        F  0.41201250  0.39207300  0.07913730    -0.20100
F169        F  0.44256402  0.35827088  0.54839356    -0.19700
F170        F  0.28318857  0.37516773  0.96197348    -0.19800
F171        F  0.31545765  0.33863498  0.42999549    -0.20100
F172        F  0.32359188  0.39400027  0.42277958    -0.22800
C173        C  0.36742896  0.11822623  0.46902475    -0.05600
C174        C  0.39264727  0.12001903  0.49365235     0.00300
C175        C  0.36871688  0.12607432  0.02622718    -0.08300
C176        C  0.34426302  0.15137388  0.02258203    -0.05700
C177        C  0.34268902  0.17046122  0.48838647     0.00300
C178        C  0.34405491  0.14429180  0.46426153    -0.08200
C179        C  0.32286273  0.14331767  0.43244145     0.62200
H180        H  0.36725154  0.09718562  0.45197670     0.12900
H181        H  0.33127985  0.16127647  0.04448419     0.12900
C182        C  0.37718329  0.11267004  0.06088148     0.62400
F183        F  0.34417345  0.13996974  0.40494507    -0.22700
F184        F  0.36189030  0.14937145  0.90188391    -0.20100
F185        F  0.30126170  0.11592949  0.43362385    -0.19700
F186        F  0.41086037  0.11913064  0.06784120    -0.19800
F187        F  0.42790853  0.12853838  0.55974324    -0.20100
F188        F  0.35765154  0.12754733  0.08574799    -0.22800
C189        C  0.11122657  0.36584188  0.52533122    -0.05600
C190        C  0.11523639  0.39283777  0.50282701     0.00300
C191        C  0.14219277  0.39176725  0.98467456    -0.08300
C192        C  0.16493375  0.36465817  0.98671788    -0.05700
C193        C  0.16351267  0.34065910  0.50629177     0.00300
C194        C  0.13594991  0.34087944  0.52907501    -0.08200
C195        C  0.13301401  0.31609637  0.55817095     0.62200
H196        H  0.08857149  0.36445239  0.54045359     0.12900
H197        H  0.18589342  0.36298774  0.96917227     0.12900
C198        C  0.14889139  0.41936336  0.95895004     0.62400
F199        F  0.16066451  0.30005908  0.07197726    -0.22700
F200        F  0.10523262  0.29585051  0.05966397    -0.20100
F201        F  0.12131649  0.28535866  0.54691573    -0.19700
F202        F  0.15964662  0.44813794  0.97535752    -0.19800
F203        F  0.12323588  0.42899114  0.43765961    -0.20100
F204        F  0.17831579  0.41645341  0.43641830    -0.22800
C205        C  0.12898097  0.12493507  0.52413538    -0.05600
C206        C  0.11399198  0.11548326  0.49354921     0.00300
C207        C  0.12128414  0.13070287  0.96461686    -0.08300
C208        C  0.14596727  0.15590712  0.96784873    -0.05700
C209        C  0.16497863  0.16567416  0.49580275     0.00300
C210        C  0.15344219  0.15069226  0.52609177    -0.08200
C211        C  0.16661013  0.16189205  0.56031246     0.62200
H212        H  0.12137790  0.11209865  0.54665747     0.12900
H213        H  0.15402475  0.17026227  0.94604463     0.12900
C214        C  0.10553368  0.12355156  0.93065929     0.62400
F215        F  0.15950968  0.18735550  0.06971059    -0.22700
F216        F  0.19882674  0.14671044  0.06393907    -0.20100
F217        F  0.14728562  0.14881739  0.58634961    -0.19700
F218        F  0.07200920  0.13337412  0.93101700    -0.19800
F219        F  0.11176522  0.09031066  0.42325064    -0.20100
F220        F  0.12207897  0.14246151  0.40421790    -0.22800
C221        C  0.32900984  0.51103791  0.36744507    -0.05600
C222        C  0.33348695  0.97709213  0.34267736     0.00300
C223        C  0.35359515  0.94989222  0.35398348    -0.08300
C224        C  0.37886462  0.95621678  0.37819416    -0.05700
C225        C  0.38089732  0.49351143  0.39561345     0.00300
C226        C  0.35269745  0.51571180  0.39361411    -0.08200
C227        C  0.34802206  0.54487135  0.41795398     0.62200
H228        H  0.30863544  0.52893512  0.36401014     0.12900
H229        H  0.39596002  0.93630334  0.38581049     0.12900
C230        C  0.34722694  0.91428607  0.34188759     0.62400
F231        F  0.33419568  0.06855583  0.39194072    -0.22700
F232        F  0.38769060  0.06017017  0.40824207    -0.20100
F233        F  0.34385240  0.53295097  0.45041376    -0.19700
F234        F  0.35683620  0.91098174  0.30861426    -0.19800
F235        F  0.32953316  0.41922415  0.31314839    -0.20100
F236        F  0.36177097  0.40027103  0.35505652    -0.22800
C237        C  0.13101330  0.51977855  0.38054772    -0.05600
C238        C  0.10560609  0.49513133  0.38182633     0.00300
C239        C  0.10920291  0.96428677  0.36343448    -0.08300
C240        C  0.13606407  0.96298898  0.34043058    -0.05700
C241        C  0.15931073  0.98952186  0.33759472     0.00300
C242        C  0.15506227  0.52025209  0.35458664    -0.08200
C243        C  0.17872232  0.55033646  0.35189740     0.62200
H244        H  0.13130777  0.53949797  0.39935774     0.12900
H245        H  0.13818850  0.94210324  0.32302993     0.12900
C246        C  0.08110641  0.93819469  0.36109336     0.62400
F247        F  0.18999572  0.55529107  0.31925890    -0.22700
F248        F  0.17053196  0.07389891  0.37758657    -0.20100
F249        F  0.16213102  0.57946317  0.36162056    -0.19700
F250        F  0.05168345  0.95355262  0.35028208    -0.19800
F251        F  0.06975393  0.42915237  0.38457594    -0.20100
F252        F  0.08889907  0.91284935  0.33843860    -0.22800
C253        C  0.13462552  0.97189779  0.10964965    -0.05600
C254        C  0.11498682  0.00132316  0.10943224     0.00300
C255        C  0.12217424  0.52771071  0.13122639    -0.08300
C256        C  0.14859828  0.52251686  0.15427315    -0.05700
C257        C  0.16268199  0.98969684  0.16115603     0.00300
C258        C  0.15822819  0.96532066  0.13536493    -0.08200
C259        C  0.17712273  0.93196590  0.13555341     0.62200
H260        H  0.13036737  0.95346516  0.08999952     0.12900
H261        H  0.15552752  0.54229507  0.17173047     0.12900
C262        C  0.10370029  0.56107647  0.13042678     0.62400
F263        F  0.16228916  0.40959594  0.11016084    -0.22700
F264        F  0.16569429  0.41589570  0.16616005    -0.20100
F265        F  0.16821416  0.91187476  0.10846428    -0.19700
F266        F  0.07023927  0.55650433  0.13962700    -0.19800
F267        F  0.10942714  0.07552410  0.10439222    -0.20100
F268        F  0.11097000  0.08003357  0.16052217    -0.22800
C269        C  0.38292611  0.46754800  0.12855556    -0.05600
C270        C  0.39003679  0.00079596  0.11927425     0.00300
C271        C  0.38478795  0.02358078  0.14634605    -0.08300
C272        C  0.35845065  0.01705304  0.16934470    -0.05700
C273        C  0.33862759  0.98784699  0.16728870     0.00300
C274        C  0.35826346  0.46158636  0.15354640    -0.08200
C275        C  0.34912436  0.42583228  0.16362812     0.62200
H276        H  0.39570602  0.44659506  0.11663060     0.12900
H277        H  0.35324846  0.03450491  0.18964919     0.12900
C278        C  0.40595002  0.05503230  0.15073659     0.62400
F279        F  0.36868646  0.40230454  0.14682139    -0.22700
F280        F  0.29150757  0.93758852  0.13218232    -0.20100
F281        F  0.35406280  0.42150226  0.19782045    -0.19700
F282        F  0.39443528  0.07477400  0.17712719    -0.19800
F283        F  0.41695131  0.57003280  0.12841831    -0.20100
F284        F  0.43912021  0.04632049  0.15738950    -0.22800
C285        C  0.03361024  0.11402740  0.36479737    -0.05600
C286        C  0.00230816  0.10330739  0.37770095     0.00300
C287        C  0.47378861  0.11829962  0.36268266    -0.08300
C288        C  0.47740392  0.14347359  0.33792044    -0.05700
C289        C  0.00534767  0.15371124  0.32745212     0.00300
C290        C  0.03571298  0.13951063  0.34006299    -0.08200
C291        C  0.07009503  0.15245420  0.32867996     0.62200
H292        H  0.05643102  0.10305908  0.37508812     0.12900
H293        H  0.45524710  0.15425508  0.32605716     0.12900
C294        C  0.43893320  0.10603742  0.37257170     0.62400
F295        F  0.09623253  0.13351484  0.34194283    -0.22700
F296        F  0.07407010  0.18547038  0.33902400    -0.20100
F297        F  0.07290944  0.15107611  0.29404940    -0.19700
F298        F  0.43350043  0.11225807  0.40642689    -0.19800
F299        F  0.43683617  0.07183060  0.36645975    -0.20100
F300        F  0.41362452  0.12191503  0.35444715    -0.22800
C301        C  0.02841784  0.32923529  0.37236022    -0.05600
C302        C  0.00354209  0.32898538  0.34706114     0.00300
C303        C  0.47502225  0.35752558  0.34730005    -0.08300
C304        C  0.47569248  0.38279778  0.37211777    -0.05700
C305        C  0.00242975  0.37838612  0.39887493     0.00300
C306        C  0.02759296  0.35271270  0.39917761    -0.08200
C307        C  0.05349878  0.34999141  0.42730573     0.62200
H308        H  0.04844223  0.31068697  0.37093757     0.12900
H309        H  0.45754866  0.40323804  0.37067775     0.12900
C310        C  0.44572807  0.35829882  0.32262859     0.62400
F311        F  0.07680710  0.32464687  0.42132257    -0.22700
F312        F  0.03725686  0.34272950  0.45731441    -0.20100
F313        F  0.07103221  0.37989431  0.43057843    -0.19700
F314        F  0.44361935  0.32986253  0.30273086    -0.19800
F315        F  0.44872132  0.38628168  0.30211385    -0.20100
F316        F  0.41574566  0.36043977  0.34049169    -0.22800
C317        C  0.47902122  0.40027714  0.14692909    -0.05600
C318        C  0.00298365  0.39983667  0.12192306     0.00300
C319        C  0.03406288  0.39065592  0.13706703    -0.08300
C320        C  0.03440874  0.36459628  0.16132447    -0.05700
C321        C  0.00441545  0.34899847  0.17238653     0.00300
C322        C  0.47669991  0.37592404  0.17286397    -0.08200
C323        C  0.44731442  0.37726667  0.19753216     0.62200
H324        H  0.46068033  0.42048555  0.14548772     0.12900
H325        H  0.05814744  0.35631268  0.17210846     0.12900
C326        C  0.06643797  0.40924853  0.12836264     0.62400
F327        F  0.42623279  0.40434679  0.19119575    -0.22700
F328        F  0.45895933  0.38051228  0.23007459    -0.20100
F329        F  0.42840883  0.34805431  0.19499873    -0.19700
F330        F  0.06375780  0.44220283  0.13926317    -0.19800
F331        F  0.07168976  0.40904772  0.09395875    -0.20100
F332        F  0.09438103  0.39487991  0.14362978    -0.22800
C333        C  0.02775354  0.17212310  0.12857610    -0.05600
C334        C  0.00117988  0.17376851  0.15214213     0.00300
C335        C  0.47417548  0.14935642  0.15501569    -0.08300
C336        C  0.47607466  0.12415934  0.13026778    -0.05700
C337        C  0.00047484  0.12510700  0.09983155     0.00300
C338        C  0.02716851  0.14890463  0.10161059    -0.08200
C339        C  0.05505906  0.14912897  0.07552599     0.62200
H340        H  0.04899591  0.18912071  0.13157065     0.12900
H341        H  0.45831735  0.10351226  0.13112914     0.12900
C342        C  0.44488353  0.14732934  0.17973557     0.62400
F343        F  0.08010629  0.17235903  0.08294721    -0.22700
F344        F  0.04172013  0.15710865  0.04436442    -0.20100
F345        F  0.06948742  0.11762613  0.07405292    -0.19700
F346        F  0.44132164  0.17601422  0.19908478    -0.19800
F347        F  0.44948977  0.12000170  0.20083437    -0.20100
F348        F  0.41501466  0.14301990  0.16209294    -0.22800
N349        N  0.00033030  0.25734900  0.69884177    -0.36500
N350        N  0.00234403  0.30300549  0.75593163    -0.57000
N351        N  0.00998711  0.24534388  0.80200531    -0.36500
N352        N  0.00395215  0.19954731  0.74477122    -0.57000
C353        C  0.99410315  0.28684463  0.68279374     0.27100
C354        C  0.99358960  0.23213104  0.67693178     0.27100
C355        C  0.00291408  0.27039009  0.82417999     0.27100
C356        C  0.00531263  0.21559140  0.81824444     0.27100
C357        C  0.00549913  0.32589762  0.73076336     0.35700
C358        C  0.00927486  0.31938433  0.78499583     0.35700
C359        C  0.00505664  0.18290987  0.71502739     0.35700
C360        C  0.01022873  0.17649650  0.76915180     0.35700
C361        C  0.98399495  0.28023229  0.65003034    -0.21700
C362        C  0.98322415  0.24582358  0.64647787    -0.21700
C363        C  0.99417051  0.25631366  0.85497517    -0.21700
C364        C  0.99602633  0.22188946  0.85135132    -0.21700
C365        C  0.01424884  0.35699055  0.74395483    -0.22800
C366        C  0.01678979  0.35284798  0.77820658    -0.22800
C367        C  0.01200713  0.14911571  0.72067259    -0.22800
C368        C  0.01480191  0.14499659  0.75485205    -0.22800
C369        C  0.99902430  0.31961339  0.69620005    -0.18100
C370        C  0.99800434  0.19714698  0.68291170    -0.18100
C371        C  0.00961190  0.18287605  0.80429672    -0.18100
C372        C  0.00522493  0.30561493  0.81779848    -0.18100
H373        H  0.97779494  0.29830760  0.63058241     0.14800
H374        H  0.97618503  0.23247323  0.62379521     0.14800
H375        H  0.98715964  0.26942549  0.87781386     0.14800
H376        H  0.99070602  0.20362031  0.87090264     0.14800
H377        H  0.01805163  0.38034339  0.73037742     0.13000
H378        H  0.02283724  0.37244144  0.79615455     0.13000
H379        H  0.01439452  0.12927275  0.70216517     0.13000
H380        H  0.01957700  0.12142495  0.76770382     0.13000
H381        H  0.01177936  0.25465569  0.72211262     0.26300
H382        H  0.02028365  0.24839052  0.77812278     0.26300
O383        O  0.00079717  0.10382643  0.54576188    -0.86300
O384        O  0.00442653  0.41174484  0.56386693    -0.86500
O385        O  0.44618242  0.00964802  0.59724254    -0.88200
O386        O  0.05617944  0.01011195  0.59585819    -0.86900
O387        O  0.09923360  0.50334119  0.54958083    -0.86500
O388        O  0.40509910  0.50530412  0.55912343    -0.87900
O389        O  0.00547818  0.45625500  0.60084897    -0.86400
O390        O  0.99950490  0.06676761  0.59017229    -0.86000
Zr391      Zr  0.00358106  0.50875375  0.56761757     2.84300
O392        O  0.03652495  0.47207391  0.53521231    -1.07900
O393        O  0.46700145  0.04054640  0.53196175    -1.08700
C394        C  0.00000215  0.09681574  0.57749225     1.06800
C395        C  0.00546600  0.42436358  0.59391048     1.06700
C396        C  0.41482420  0.00965154  0.58804462     1.09700
C397        C  0.08716332  0.00751940  0.58585105     1.07500
H398        H  0.45301642  0.46003947  0.55445174     0.33000
O399        O  0.46691935  0.47317506  0.53935282    -1.28900
H400        H  0.04931444  0.05502495  0.54394590     0.32700
O401        O  0.03503657  0.03989890  0.53126877    -1.30600
O402        O  0.00119074  0.40197569  0.95373918    -0.86300
O403        O  0.00167889  0.08961459  0.93417338    -0.87800
O404        O  0.40537169  0.44579703  0.00689158    -0.86400
O405        O  0.09660312  0.44956779  0.00161654    -0.86500
O406        O  0.09585443  0.05523161  0.99536055    -0.86200
O407        O  0.40231486  0.05732934  0.00304081    -0.86000
O408        O  0.43984009  0.49109023  0.90841971    -0.86300
O409        O  0.05126868  0.49478479  0.90260493    -0.85800
O410        O  0.40097060  0.49340371  0.95137357    -0.86900
O411        O  0.09340883  0.50020505  0.94193109    -0.86000
O412        O  0.44717165  0.40566300  0.00815945    -0.86400
O413        O  0.44288151  0.09818518  0.99494219    -0.86200
O414        O  0.05470706  0.09590116  0.99027786    -0.85800
O415        O  0.05612528  0.40863698  0.00815855    -0.86200
O416        O  0.99814558  0.43903649  0.90946994    -0.86500
O417        O  0.99952911  0.04490290  0.89745183    -0.87800
Zr418      Zr  0.00006297  0.43500328  0.00579743     2.83100
Zr419      Zr  0.99945912  0.06862182  0.99241674     2.83500
Zr420      Zr  0.43165228  0.50164059  0.00394508     2.84100
Zr421      Zr  0.06732374  0.50336691  0.99796474     2.83400
Zr422      Zr  0.99744200  0.49687015  0.93178946     2.84200
O423        O  0.03302629  0.03098810  0.96163471    -1.08400
O424        O  0.46534327  0.46590319  0.97119993    -1.07900
C425        C  0.00018917  0.40890125  0.92194174     1.06700
C426        C  0.00135016  0.07667989  0.90423186     1.09400
C427        C  0.41585597  0.41494854  0.00812059     1.06900
C428        C  0.08721438  0.41865396  0.00542107     1.07300
C429        C  0.08574648  0.08599905  0.99252363     1.06900
C430        C  0.41201800  0.08818613  0.99879367     1.06400
C431        C  0.40914857  0.49019233  0.92004338     1.06800
C432        C  0.08257943  0.49651545  0.91139381     1.06300
H433        H  0.44792133  0.04631246  0.95146982     0.33000
O434        O  0.46266695  0.03368488  0.96614420    -1.29500
H435        H  0.04708607  0.45110195  0.95470592     0.33000
O436        O  0.03300113  0.46609325  0.96771428    -1.30900
N437        N  0.25168056  0.01855426  0.70006027    -0.36500
N438        N  0.30200815  0.01265589  0.75331279    -0.57000
N439        N  0.24861230  0.00623696  0.80222179    -0.36500
N440        N  0.19825391  0.01012831  0.74952774    -0.57000
C441        C  0.28013787  0.01424106  0.68150735     0.27100
C442        C  0.22494183  0.01385093  0.67927208     0.27100
C443        C  0.27556058  0.99532642  0.82004428     0.27100
C444        C  0.22067540  0.99482021  0.81821005     0.27100
C445        C  0.32237093  0.02145834  0.72750667     0.35700
C446        C  0.32051127  0.01563335  0.78167603     0.35700
C447        C  0.17887758  0.01642189  0.72232142     0.35700
C448        C  0.17758620  0.01193009  0.77655471     0.35700
C449        C  0.27131418  0.00800816  0.64828763    -0.21700
C450        C  0.23661847  0.00852666  0.64675420    -0.21700
C451        C  0.26462269  0.97666606  0.84754161    -0.21700
C452        C  0.22986956  0.97648017  0.84645909    -0.21700
C453        C  0.35400520  0.03067799  0.73953063    -0.22800
C454        C  0.35280998  0.02698938  0.77400131    -0.22800
C455        C  0.14561541  0.02197065  0.73216253    -0.22800
C456        C  0.14491277  0.01956826  0.76661247    -0.22800
C457        C  0.31391092  0.01704098  0.69328957    -0.18100
C458        C  0.19027607  0.01428412  0.68866284    -0.18100
C459        C  0.18717418  0.00308606  0.80950958    -0.18100
C460        C  0.30957933  0.00392262  0.81345200    -0.18100
H461        H  0.28807536  0.00362281  0.62716873     0.14800
H462        H  0.22170584  0.00449771  0.62428154     0.14800
H463        H  0.28007097  0.96486786  0.86668866     0.14800
H464        H  0.21322622  0.96460384  0.86461980     0.14800
H465        H  0.37597559  0.03789866  0.72486674     0.13000
H466        H  0.37366506  0.03081358  0.79122535     0.13000
H467        H  0.12391548  0.02667937  0.71628313     0.13000
H468        H  0.12266216  0.02189159  0.78237676     0.13000
H469        H  0.25060511  0.02658273  0.72486828     0.26300
H470        H  0.24903449  0.02412023  0.78304228     0.26300
N471        N  0.24792172  0.20003201  0.99477371    -0.36500
N472        N  0.30074271  0.25182975  0.99670453    -0.57000
N473        N  0.24900989  0.30278586  0.00473399    -0.36500
N474        N  0.19617136  0.25106587  0.00642553    -0.57000
C475        C  0.27544300  0.18004095  0.99236235     0.27100
C476        C  0.22058388  0.17974374  0.99772372     0.27100
C477        C  0.27709091  0.32092804  0.01230630     0.27100
C478        C  0.22195365  0.32064755  0.01562294     0.27100
C479        C  0.32053492  0.22481023  0.99050824     0.35700
C480        C  0.32113825  0.27918982  0.99590725     0.35700
C481        C  0.17577378  0.22420868  0.00137818     0.35700
C482        C  0.17637629  0.27869004  0.00437524     0.35700
C483        C  0.26536111  0.14652577  0.99288979    -0.21700
C484        C  0.23081980  0.14634016  0.99615583    -0.21700
C485        C  0.26769315  0.35056057  0.02820459    -0.21700
C486        C  0.23293665  0.35048731  0.03009050    -0.21700
C487        C  0.35384655  0.23506468  0.98623970    -0.22800
C488        C  0.35413979  0.26949157  0.98910754    -0.22800
C489        C  0.14264143  0.23477707  0.99702026    -0.22800
C490        C  0.14315563  0.26931038  0.99813741    -0.22800
C491        C  0.30951514  0.19082809  0.98981124    -0.18100
C492        C  0.18647146  0.19023701  0.00036633    -0.18100
C493        C  0.18747833  0.31196612  0.01079552    -0.18100
C494        C  0.31087732  0.31244620  0.00373311    -0.18100
H495        H  0.28120080  0.12437926  0.99097487     0.14800
H496        H  0.21507363  0.12402651  0.99715970     0.14800
H497        H  0.28418066  0.37046932  0.03701616     0.14800
H498        H  0.21745003  0.37028394  0.04073601     0.14800
H499        H  0.37572195  0.21939121  0.98144018     0.13000
H500        H  0.37632358  0.28538993  0.98718437     0.13000
H501        H  0.12048592  0.21931355  0.99273744     0.13000
H502        H  0.12140482  0.28555064  0.99511663     0.13000
H503        H  0.24773993  0.22594006  0.99325085     0.26300
H504        H  0.24796532  0.28181210  0.98916291     0.26300
C505        C  0.36021014  0.34339029  0.52754931    -0.05600
C506        C  0.33734711  0.33947497  0.00492896     0.00300
C507        C  0.33963723  0.36479865  0.97980102    -0.08300
C508        C  0.36566321  0.38890773  0.98205070    -0.05700
C509        C  0.38962719  0.38821274  0.00806445     0.00300
C510        C  0.38608600  0.36743985  0.52993650    -0.08200
C511        C  0.41036252  0.36621538  0.55948397     0.62200
H512        H  0.35801255  0.32359357  0.54622600     0.13000
H513        H  0.36766989  0.40859948  0.96323451     0.12900
C514        C  0.31496954  0.36630480  0.95050347     0.62400
F515        F  0.40089975  0.34227379  0.58307744    -0.22700
F516        F  0.41087026  0.39723249  0.57519185    -0.20100
F517        F  0.44474139  0.35530064  0.05066879    -0.19700
F518        F  0.28242667  0.37601607  0.45719323    -0.19800
F519        F  0.31317391  0.33527669  0.93481109    -0.20100
F520        F  0.32475382  0.38986523  0.92664387    -0.22800
C521        C  0.37762205  0.12786361  0.96556973    -0.05600
C522        C  0.38562608  0.11430069  0.99717028     0.00300
C523        C  0.39465443  0.14902235  0.51446320    -0.08300
C524        C  0.36821863  0.17265126  0.51289669    -0.05700
C525        C  0.33581771  0.16431173  0.99085144     0.00300
C526        C  0.35196570  0.15194575  0.96162554    -0.08200
C527        C  0.34116933  0.16287286  0.92657215     0.62200
H528        H  0.39108542  0.11888062  0.94383417     0.12900
H529        H  0.36759789  0.19356501  0.53037514     0.12900
C530        C  0.42428578  0.15528989  0.53802433     0.62400
F531        F  0.30842367  0.15206620  0.92069244    -0.22700
F532        F  0.30393847  0.17214148  0.42752139    -0.20100
F533        F  0.34238669  0.19751161  0.92356049    -0.19700
F534        F  0.45377956  0.15920737  0.51964433    -0.19800
F535        F  0.37140492  0.07833675  0.06189626    -0.20100
F536        F  0.41992911  0.18413693  0.55708747    -0.22800
C537        C  0.11069257  0.36691277  0.03136120    -0.05600
C538        C  0.11401346  0.39243802  0.00700223     0.00300
C539        C  0.14435172  0.39407350  0.48174311    -0.08300
C540        C  0.16736916  0.36714738  0.48314808    -0.05700
C541        C  0.16203392  0.33972689  0.01160747     0.00300
C542        C  0.13523321  0.34162429  0.03536154    -0.08200
C543        C  0.13152936  0.31812517  0.06539277     0.62200
H544        H  0.08927387  0.36743967  0.04841399     0.12900
H545        H  0.18917124  0.36679231  0.46657132     0.12900
C546        C  0.15125624  0.42309845  0.45759325     0.62400
F547        F  0.11068552  0.32761854  0.58247165    -0.22700
F548        F  0.16414607  0.31181317  0.57345277    -0.20100
F549        F  0.12411705  0.33670139  0.09393004    -0.19700
F550        F  0.15898788  0.45186086  0.47566051    -0.19800
F551        F  0.11990644  0.42638730  0.94097661    -0.20100
F552        F  0.17372518  0.41023784  0.93604848    -0.22800
C553        C  0.12739772  0.11872580  0.02447185    -0.05600
C554        C  0.11185982  0.11220699  0.99350252     0.00300
C555        C  0.12424133  0.13202987  0.46362876    -0.08300
C556        C  0.15032969  0.15619124  0.46513535    -0.05700
C557        C  0.16019094  0.16362209  0.99921783     0.00300
C558        C  0.15059503  0.14519970  0.02822723    -0.08200
C559        C  0.16458263  0.15359377  0.06283452     0.62200
H560        H  0.12108544  0.10295392  0.04575085     0.12900
H561        H  0.15910827  0.16855816  0.44241155     0.12900
C562        C  0.10782536  0.12407338  0.43026572     0.62400
F563        F  0.16565610  0.19663092  0.56284171    -0.22700
F564        F  0.19953460  0.15112957  0.56467285    -0.20100
F565        F  0.14884508  0.13508274  0.08796294    -0.19700
F566        F  0.07373333  0.13162604  0.43182204    -0.19800
F567        F  0.10721061  0.08954478  0.92383092    -0.20100
F568        F  0.12203286  0.14057678  0.90499674    -0.22800
C569        C  0.32868705  0.50305666  0.86822605    -0.05600
C570        C  0.33454419  0.99924509  0.84101860     0.00300
C571        C  0.36042203  0.97464250  0.84001507    -0.08300
C572        C  0.38461560  0.97427852  0.86599095    -0.05700
C573        C  0.38105361  0.48539459  0.89541286     0.00300
C574        C  0.35220127  0.50667907  0.89452653    -0.08200
C575        C  0.34716349  0.53425721  0.92018480     0.62200
H576        H  0.30773028  0.52048836  0.86606001     0.12900
H577        H  0.40556832  0.95671075  0.86454578     0.12900
C578        C  0.36304098  0.94808728  0.81261795     0.62400
F579        F  0.32032716  0.06122049  0.92298553    -0.22700
F580        F  0.37577755  0.05876849  0.93347707    -0.20100
F581        F  0.33920408  0.52032523  0.95113907    -0.19700
F582        F  0.38901628  0.95641437  0.79078762    -0.19800
F583        F  0.33333670  0.41641042  0.80608988    -0.20100
F584        F  0.36375574  0.39488081  0.84789402    -0.22800
C585        C  0.13313569  0.51949853  0.88295034    -0.05600
C586        C  0.10806229  0.49452814  0.88417092     0.00300
C587        C  0.11289044  0.96921681  0.85966310    -0.08300
C588        C  0.13841676  0.97311978  0.83524880    -0.05700
C589        C  0.16078138  0.00052596  0.83595821     0.00300
C590        C  0.15717822  0.52065756  0.85692974    -0.08200
C591        C  0.18043686  0.55115267  0.85585461     0.62200
H592        H  0.13308518  0.53919931  0.90180769     0.12900
H593        H  0.14066290  0.95504461  0.81492709     0.12900
C594        C  0.08817925  0.94028343  0.85541117     0.62400
F595        F  0.19934927  0.55325065  0.82662699    -0.22700
F596        F  0.16914614  0.07945816  0.88585936    -0.20100
F597        F  0.16120477  0.58020671  0.85804980    -0.19700
F598        F  0.07446745  0.93013597  0.88571379    -0.19800
F599        F  0.07699408  0.42715773  0.88972333    -0.20100
F600        F  0.06240209  0.95033365  0.83418482    -0.22800
C601        C  0.13189903  0.98045956  0.62013353    -0.05600
C602        C  0.11361635  0.00953796  0.61197396     0.00300
C603        C  0.12619367  0.53118843  0.62738297    -0.08300
C604        C  0.15102914  0.52702784  0.65227419    -0.05700
C605        C  0.16428022  0.01167141  0.66172964     0.00300
C606        C  0.15588542  0.98052858  0.64631700    -0.08200
C607        C  0.17026154  0.94735161  0.65902991     0.62200
H608        H  0.12614233  0.95738636  0.60680561     0.12900
H609        H  0.15723919  0.54763801  0.66902454     0.12900
C610        C  0.10938195  0.56506080  0.62273947     0.62400
F611        F  0.16685913  0.41185134  0.61538112    -0.22700
F612        F  0.17416164  0.42288335  0.67021060    -0.20100
F613        F  0.15790575  0.92021549  0.64102046    -0.19700
F614        F  0.07538463  0.56283942  0.63075035    -0.19800
F615        F  0.09999793  0.07646271  0.58733421    -0.20100
F616        F  0.11392375  0.09976722  0.63671031    -0.22800
C617        C  0.37508292  0.47026743  0.62005044    -0.05600
C618        C  0.38906332  0.01184423  0.61494667     0.00300
C619        C  0.36808129  0.04048303  0.61843288    -0.08300
C620        C  0.34529946  0.04195872  0.64550891    -0.05700
C621        C  0.34165654  0.01498930  0.66798045     0.00300
C622        C  0.35128864  0.46349879  0.64558787    -0.08200
C623        C  0.33554891  0.42875492  0.64883487     0.62200
H624        H  0.38218601  0.45065464  0.60250248     0.12900
H625        H  0.32916193  0.06375987  0.64876062     0.12900
C626        C  0.37043703  0.06964235  0.59400333     0.62400
F627        F  0.34877137  0.40640528  0.62555049    -0.22700
F628        F  0.32358657  0.94323360  0.68227640    -0.20100
F629        F  0.34166284  0.41610851  0.68071486    -0.19700
F630        F  0.36056913  0.05937712  0.56224689    -0.19800
F631        F  0.41383220  0.57016153  0.66588078    -0.20100
F632        F  0.35014767  0.09641957  0.60347612    -0.22800
C633        C  0.03484853  0.11062196  0.86350044    -0.05600
C634        C  0.00303465  0.10053673  0.87550452     0.00300
C635        C  0.46483117  0.11202346  0.86205046    -0.08300
C636        C  0.46385181  0.13857808  0.83841206    -0.05700
C637        C  0.00870654  0.15323469  0.82773073     0.00300
C638        C  0.03831738  0.13690023  0.83974534    -0.08200
C639        C  0.07354433  0.14869911  0.83002816     0.62200
H640        H  0.05709656  0.09872792  0.87403747     0.12900
H641        H  0.44016281  0.14573904  0.82676140     0.12900
C642        C  0.43320134  0.09191529  0.86982761     0.62400
F643        F  0.09777441  0.12486943  0.83819593    -0.22700
F644        F  0.08078821  0.17816250  0.84705963    -0.20100
F645        F  0.07591157  0.15451188  0.79581775    -0.19700
F646        F  0.42669624  0.09331254  0.90386729    -0.19800
F647        F  0.43804896  0.05868320  0.86061619    -0.20100
F648        F  0.40520535  0.10404181  0.85281115    -0.22800
C649        C  0.02559784  0.32971601  0.87255880    -0.05600
C650        C  0.00135039  0.32980941  0.84669113     0.00300
C651        C  0.47098094  0.35486956  0.84826636    -0.08300
C652        C  0.47265529  0.38069264  0.87249012    -0.05700
C653        C  0.00085132  0.38024460  0.89757747     0.00300
C654        C  0.02470853  0.35342484  0.89911639    -0.08200
C655        C  0.04878056  0.34931477  0.92863904     0.62200
H656        H  0.04500140  0.31048615  0.87198384     0.12900
H657        H  0.45316651  0.39989787  0.87281319     0.12900
C658        C  0.43987041  0.35366100  0.82601703     0.62400
F659        F  0.07160253  0.32337698  0.92347896    -0.22700
F660        F  0.03044844  0.34191905  0.95740623    -0.20100
F661        F  0.06701149  0.37852511  0.93373117    -0.19700
F662        F  0.43822869  0.32575662  0.80534545    -0.19800
F663        F  0.43916530  0.38212756  0.80606429    -0.20100
F664        F  0.41155835  0.35280519  0.84638573    -0.22800
C665        C  0.47031605  0.38842807  0.63583610    -0.05600
C666        C  0.00497745  0.40005125  0.62254668     0.00300
C667        C  0.03461584  0.38432212  0.63500138    -0.08300
C668        C  0.03147120  0.35841069  0.65911869    -0.05700
C669        C  0.99987802  0.34860416  0.67198321     0.00300
C670        C  0.46939329  0.36307564  0.66076242    -0.08200
C671        C  0.43561544  0.35110837  0.67481773     0.62200
H672        H  0.44702737  0.39802480  0.62537015     0.12900
H673        H  0.05376943  0.34554366  0.66834945     0.12900
C674        C  0.06942422  0.39566886  0.62377945     0.62400
F675        F  0.40901964  0.37053807  0.66319323    -0.22700
F676        F  0.43595196  0.35320208  0.70958878    -0.20100
F677        F  0.42951979  0.31814253  0.66558586    -0.19700
F678        F  0.07439288  0.42875525  0.63331669    -0.19800
F679        F  0.07200687  0.39341761  0.58929670    -0.20100
F680        F  0.09485054  0.37626585  0.63790771    -0.22800
C681        C  0.02011480  0.17596045  0.62814229    -0.05600
C682        C  0.99528229  0.17387027  0.65346214     0.00300
C683        C  0.46517812  0.14773807  0.65077397    -0.08300
C684        C  0.47011967  0.12216099  0.62686458    -0.05700
C685        C  0.99838637  0.12519972  0.60165427     0.00300
C686        C  0.02121582  0.15279526  0.60130105    -0.08200
C687        C  0.04736828  0.15707401  0.57367282     0.62200
H688        H  0.03879082  0.19588134  0.62976282     0.12900
H689        H  0.45263196  0.10115403  0.62626041     0.12900
C690        C  0.43294928  0.14584878  0.67164025     0.62400
F691        F  0.03152574  0.16271853  0.54318434    -0.22700
F692        F  0.06654488  0.12831172  0.57142613    -0.20100
F693        F  0.06894140  0.18387902  0.57977029    -0.19700
F694        F  0.42828967  0.17341479  0.69232175    -0.19800
F695        F  0.43345606  0.11703984  0.69126270    -0.20100
F696        F  0.40542741  0.14417034  0.65019955    -0.22800
N697        N  0.00064746  0.75838307  0.19955920    -0.36500
N698        N  0.00390284  0.80402419  0.25721714    -0.57000
N699        N  0.01025049  0.74597148  0.30261675    -0.36500
N700        N  0.00396889  0.70037345  0.24486612    -0.57000
C701        C  0.99794464  0.78824856  0.18321587     0.27100
C702        C  0.99510811  0.73344293  0.17688420     0.27100
C703        C  0.00252939  0.77070249  0.32498686     0.27100
C704        C  0.00579335  0.71600632  0.31850840     0.27100
C705        C  0.00712792  0.82714108  0.23231420     0.35700
C706        C  0.00909006  0.82034903  0.28664551     0.35700
C707        C  0.00320012  0.68361803  0.21519582     0.35700
C708        C  0.00970544  0.67708419  0.26907837     0.35700
C709        C  0.99133591  0.78213469  0.14945407    -0.21700
C710        C  0.98904775  0.74778414  0.14558915    -0.21700
C711        C  0.99366401  0.75617976  0.35552883    -0.21700
C712        C  0.99627117  0.72189957  0.35164517    -0.21700
C713        C  0.01440237  0.85840501  0.24606749    -0.22800
C714        C  0.01584604  0.85407605  0.28038170    -0.22800
C715        C  0.00849475  0.64953017  0.22075155    -0.22800
C716        C  0.01194444  0.64535024  0.25475882    -0.22800
C717        C  0.00190914  0.82093643  0.19747654    -0.18100
C718        C  0.99662126  0.69808253  0.18311372    -0.18100
C719        C  0.00985540  0.68338028  0.30416386    -0.18100
C720        C  0.00428140  0.80606371  0.31912762    -0.18100
H721        H  0.98822574  0.80051324  0.12955171     0.14800
H722        H  0.98385178  0.73492240  0.12215473     0.14800
H723        H  0.98605333  0.76886965  0.37841378     0.14800
H724        H  0.99107396  0.70348558  0.37107788     0.14800
H725        H  0.01793050  0.88199248  0.23282735     0.13000
H726        H  0.02063680  0.87370686  0.29866446     0.13000
H727        H  0.00939821  0.62949010  0.20234439     0.13000
H728        H  0.01529354  0.62146851  0.26747497     0.13000
H729        H  0.00770851  0.75524977  0.22434190     0.26300
H730        H  0.02073891  0.74926576  0.27885715     0.26300
O731        O  0.99927202  0.60365539  0.04619243    -0.86300
O732        O  0.00151831  0.91129326  0.06466714    -0.86500
O733        O  0.44784761  0.50654696  0.09939034    -0.88200
O734        O  0.05589181  0.50767622  0.09404211    -0.86900
O735        O  0.09780512  0.00184502  0.05220850    -0.86500
O736        O  0.40517317  0.00310646  0.06151898    -0.87900
O737        O  0.00193587  0.95621850  0.10124660    -0.86400
O738        O  0.99891206  0.56620635  0.09038806    -0.86000
Zr739      Zr  0.00180455  0.00792506  0.06758036     2.84300
O740        O  0.03521616  0.97023230  0.03662230    -1.07900
O741        O  0.46655898  0.53870712  0.03410160    -1.08700
C742        C  0.99895654  0.59641000  0.07796844     1.06800
C743        C  0.00187668  0.92435349  0.09454604     1.06700
C744        C  0.41640908  0.50413433  0.09067140     1.09700
C745        C  0.08669546  0.50481592  0.08330899     1.07500
H746        H  0.45258653  0.95808458  0.05590965     0.33000
O747        O  0.46600646  0.97138139  0.04039464    -1.28900
H748        H  0.04811856  0.55474209  0.04326061     0.32700
O749        O  0.03376005  0.53984395  0.03037976    -1.30600
O750        O  0.99928493  0.90161089  0.45571932    -0.86300
O751        O  0.99993387  0.59135389  0.43460280    -0.87800
O752        O  0.40151741  0.95068565  0.50423343    -0.86400
O753        O  0.09539944  0.94696004  0.50566195    -0.86500
O754        O  0.09588434  0.55794966  0.49072274    -0.86200
O755        O  0.40627858  0.56076432  0.49701891    -0.86000
O756        O  0.44015024  0.99130569  0.40743524    -0.86300
O757        O  0.05205745  0.99210837  0.40502189    -0.85800
O758        O  0.40050097  0.99839773  0.44924034    -0.86900
O759        O  0.09423732  0.99739816  0.44447013    -0.86000
O760        O  0.44175419  0.90901775  0.50697106    -0.86400
O761        O  0.44784874  0.60095634  0.49103249    -0.86200
O762        O  0.05451382  0.59839373  0.48711265    -0.85800
O763        O  0.05443072  0.90621370  0.50989289    -0.86200
O764        O  0.99747548  0.93831948  0.41118427    -0.86500
O765        O  0.99678525  0.54663104  0.39795545    -0.87800
Zr766      Zr  0.99973434  0.93492688  0.50743457     2.83100
Zr767      Zr  0.00002194  0.57021158  0.49271810     2.83500
Zr768      Zr  0.43085332  0.00491157  0.50197097     2.84100
Zr769      Zr  0.06859046  0.00249220  0.50018038     2.83400
Zr770      Zr  0.99802609  0.99599119  0.43348297     2.84200
O771        O  0.03209912  0.53278681  0.46061923    -1.08400
O772        O  0.46339879  0.96694677  0.47055169    -1.07900
C773        C  0.99850249  0.90827466  0.42389904     1.06700
C774        C  0.99879143  0.57843667  0.40471029     1.09400
C775        C  0.41085210  0.91953005  0.50590551     1.06900
C776        C  0.08564877  0.91592337  0.50835889     1.07300
C777        C  0.08565047  0.58864860  0.48742441     1.06900
C778        C  0.41663977  0.59136041  0.49246579     1.06400
C779        C  0.40930365  0.99294054  0.41844646     1.06800
C780        C  0.08331194  0.99334237  0.41405211     1.06300
H781        H  0.45171136  0.54865464  0.45102729     0.33000
O782        O  0.46583944  0.53570573  0.46602522    -1.29500
H783        H  0.04729126  0.95004592  0.45699053     0.33000
O784        O  0.03350326  0.96552646  0.46982236    -1.30900
N785        N  0.25134379  0.48207042  0.19847507    -0.36500
N786        N  0.30094577  0.48246313  0.25418813    -0.57000
N787        N  0.24593604  0.48704734  0.30171469    -0.36500
N788        N  0.19634205  0.48607126  0.24642058    -0.57000
C789        C  0.28034613  0.48702576  0.18088028     0.27100
C790        C  0.22523013  0.48797034  0.17704001     0.27100
C791        C  0.27168948  0.47994129  0.32313234     0.27100
C792        C  0.21676848  0.48238326  0.31897531     0.27100
C793        C  0.32283205  0.48434758  0.22804207     0.35700
C794        C  0.31963423  0.48512971  0.28265187     0.35700
C795        C  0.17736672  0.48715327  0.21813635     0.35700
C796        C  0.17484745  0.49063695  0.27248015     0.35700
C797        C  0.27244900  0.49519419  0.14779923    -0.21700
C798        C  0.23788036  0.49622539  0.14552819    -0.21700
C799        C  0.25863535  0.47067028  0.35422263    -0.21700
C800        C  0.22402846  0.47219291  0.35160667    -0.21700
C801        C  0.35561559  0.48776810  0.24000076    -0.22800
C802        C  0.35354721  0.48870195  0.27445223    -0.22800
C803        C  0.14357145  0.49184872  0.22643540    -0.22800
C804        C  0.14211830  0.49495606  0.26066647    -0.22800
C805        C  0.31395757  0.48540279  0.19346449    -0.18100
C806        C  0.19017521  0.48692169  0.18480507    -0.18100
C807        C  0.18371435  0.48880341  0.30690969    -0.18100
C808        C  0.30673507  0.48278677  0.31596308    -0.18100
H809        H  0.28976758  0.50068262  0.12737680     0.14800
H810        H  0.22366189  0.50259775  0.12313932     0.14800
H811        H  0.27260040  0.46356533  0.37654798     0.14800
H812        H  0.20619589  0.46660088  0.37158312     0.14800
H813        H  0.37864284  0.49025239  0.22539953     0.13000
H814        H  0.37472220  0.49172053  0.29140866     0.13000
H815        H  0.12211101  0.49379211  0.20967059     0.13000
H816        H  0.11930441  0.49940029  0.27508745     0.13000
H817        H  0.24968446  0.47309113  0.22296103     0.26300
H818        H  0.24795683  0.49813193  0.27807809     0.26300
N819        N  0.25143096  0.70129401  0.48424259    -0.36500
N820        N  0.30190073  0.75406729  0.49355841    -0.57000
N821        N  0.24816163  0.80249480  0.50450505    -0.36500
N822        N  0.19774210  0.74992840  0.49823665    -0.57000
C823        C  0.27965869  0.68216854  0.48620407     0.27100
C824        C  0.22451686  0.68034546  0.48673945     0.27100
C825        C  0.27538955  0.82158823  0.51217106     0.27100
C826        C  0.22049365  0.81865258  0.51637522     0.27100
C827        C  0.32281327  0.72841215  0.48534650     0.35700
C828        C  0.32068992  0.78255303  0.49266946     0.35700
C829        C  0.17923357  0.72399132  0.48625821     0.35700
C830        C  0.17756917  0.77736590  0.49713284     0.35700
C831        C  0.27049504  0.64847563  0.48871923    -0.21700
C832        C  0.23575749  0.64732296  0.48872508    -0.21700
C833        C  0.26496679  0.85030813  0.52911353    -0.21700
C834        C  0.23029920  0.84836084  0.53193254    -0.21700
C835        C  0.35526632  0.74059916  0.47987254    -0.22800
C836        C  0.35382298  0.77493101  0.48403952    -0.22800
C837        C  0.14697903  0.73492136  0.47792627    -0.22800
C838        C  0.14612847  0.76888019  0.48426266    -0.22800
C839        C  0.31348482  0.69394780  0.48447184    -0.18100
C840        C  0.19009596  0.69012423  0.48587476    -0.18100
C841        C  0.18657695  0.80941910  0.50967357    -0.18100
C842        C  0.30902369  0.81495378  0.50202021    -0.18100
H843        H  0.28706084  0.62681720  0.48996101     0.14800
H844        H  0.22054247  0.62466643  0.49003651     0.14800
H845        H  0.28063291  0.87087578  0.53789325     0.14800
H846        H  0.21403758  0.86724415  0.54308806     0.14800
H847        H  0.37765467  0.72626157  0.47349235     0.13000
H848        H  0.37494729  0.79218100  0.48178851     0.13000
H849        H  0.12610297  0.72009364  0.46842984     0.13000
H850        H  0.12454212  0.78525381  0.48069853     0.13000
H851        H  0.25045646  0.72677160  0.47872656     0.26300
H852        H  0.24810742  0.78242371  0.48780046     0.26300
C853        C  0.35891523  0.84245057  0.03457302    -0.05600
C854        C  0.33387574  0.84312283  0.50305590     0.00300
C855        C  0.33748638  0.86610126  0.47599300    -0.08300
C856        C  0.36269538  0.89113351  0.47799192    -0.05700
C857        C  0.38399135  0.89361837  0.50613789     0.00300
C858        C  0.38397980  0.86750237  0.03602209    -0.08200
C859        C  0.40607588  0.87044832  0.06700933     0.62200
H860        H  0.35603252  0.82456801  0.05500746     0.13000
H861        H  0.36629254  0.90871959  0.45740214     0.12900
C862        C  0.31477874  0.86397828  0.44526658     0.62400
F863        F  0.39432336  0.85032439  0.09297575    -0.22700
F864        F  0.40624438  0.90336996  0.07824705    -0.20100
F865        F  0.43414042  0.86724749  0.55819103    -0.19700
F866        F  0.28370143  0.86785776  0.95980880    -0.19800
F867        F  0.31704683  0.83228225  0.43102045    -0.20100
F868        F  0.32367026  0.88743927  0.42101392    -0.22800
C869        C  0.38257914  0.63190685  0.45879188    -0.05600
C870        C  0.39052861  0.61774212  0.49020989     0.00300
C871        C  0.38497331  0.63720832  0.02401431    -0.08300
C872        C  0.36073691  0.66273792  0.02118066    -0.05700
C873        C  0.34085348  0.66825595  0.48516996     0.00300
C874        C  0.35626959  0.65566082  0.45556117    -0.08200
C875        C  0.34304032  0.66530208  0.42101939     0.62200
H876        H  0.39597722  0.62309597  0.43673266     0.12900
H877        H  0.35718854  0.68030576  0.04177758     0.12900
C878        C  0.40677484  0.63674192  0.05540244     0.62400
F879        F  0.30984700  0.65456342  0.41808095    -0.22700
F880        F  0.33041769  0.68114562  0.92008563    -0.20100
F881        F  0.34420035  0.69981769  0.41665494    -0.19700
F882        F  0.43096906  0.66181535  0.05285389    -0.19800
F883        F  0.36962342  0.57792032  0.55106559    -0.20100
F884        F  0.38697550  0.64279033  0.08350901    -0.22800
C885        C  0.10907561  0.86249010  0.53245398    -0.05600
C886        C  0.11224401  0.88921253  0.50917899     0.00300
C887        C  0.14327977  0.89054860  0.98595299    -0.08300
C888        C  0.16703614  0.86431160  0.98801911    -0.05700
C889        C  0.16034241  0.83634996  0.51109936     0.00300
C890        C  0.13380268  0.83696044  0.53508738    -0.08200
C891        C  0.13306551  0.81245293  0.56459779     0.62200
H892        H  0.08753453  0.86212972  0.54921763     0.12900
H893        H  0.18901680  0.86437227  0.97167159     0.12900
C894        C  0.14923089  0.91884633  0.96074974     0.62400
F895        F  0.12446256  0.82774007  0.09082509    -0.22700
F896        F  0.15673711  0.78963989  0.06515206    -0.20100
F897        F  0.10534006  0.81775866  0.58528593    -0.19700
F898        F  0.15547943  0.94867929  0.97756752    -0.19800
F899        F  0.11637741  0.92118539  0.44205513    -0.20100
F900        F  0.17148751  0.90946645  0.43844524    -0.22800
C901        C  0.12921147  0.62221911  0.51558721    -0.05600
C902        C  0.11190634  0.61486884  0.48582624     0.00300
C903        C  0.12376580  0.63232616  0.96674870    -0.08300
C904        C  0.15075049  0.65505211  0.96972753    -0.05700
C905        C  0.16371794  0.66347439  0.48645886     0.00300
C906        C  0.15401289  0.64744824  0.51686649    -0.08200
C907        C  0.16904477  0.65738543  0.55063700     0.62200
H908        H  0.12266218  0.60838187  0.53806879     0.12900
H909        H  0.16031741  0.66831311  0.94782407     0.12900
C910        C  0.10663109  0.62810818  0.93319288     0.62400
F911        F  0.19688536  0.64023834  0.07053271    -0.22700
F912        F  0.14383878  0.64370187  0.09010943    -0.20100
F913        F  0.15141311  0.64303661  0.57719110    -0.19700
F914        F  0.07356677  0.63919639  0.93565999    -0.19800
F915        F  0.10174035  0.59440036  0.41405155    -0.20100
F916        F  0.11121666  0.64792497  0.39828153    -0.22800
C917        C  0.33557526  0.00819364  0.35916859    -0.05600
C918        C  0.33106522  0.48370474  0.34504295     0.00300
C919        C  0.35679826  0.45931206  0.35004904    -0.08300
C920        C  0.38225949  0.46569299  0.37391173    -0.05700
C921        C  0.38178795  0.98778538  0.39376932     0.00300
C922        C  0.35821532  0.01339338  0.38586685    -0.08200
C923        C  0.35616735  0.04548627  0.40618393     0.62200
H924        H  0.31843431  0.02806069  0.35154647     0.12900
H925        H  0.40284989  0.44783470  0.37658302     0.12900
C926        C  0.35830999  0.42590534  0.33170036     0.62400
F927        F  0.31981943  0.56406894  0.41024093    -0.22700
F928        F  0.37602223  0.56556358  0.41668703    -0.20100
F929        F  0.34470189  0.03799722  0.43826142    -0.19700
F930        F  0.38605607  0.42568538  0.31044613    -0.19800
F931        F  0.31323021  0.90653047  0.34498836    -0.20100
F932        F  0.36505668  0.89120479  0.36088538    -0.22800
C933        C  0.13312868  0.01650147  0.38548524    -0.05600
C934        C  0.10881856  0.99085155  0.38727337     0.00300
C935        C  0.10450363  0.46956192  0.35689020    -0.08300
C936        C  0.13132222  0.46749896  0.33383849    -0.05700
C937        C  0.15631241  0.49253477  0.33222194     0.00300
C938        C  0.15725034  0.01747184  0.35962398    -0.08200
C939        C  0.17898337  0.04880406  0.35487753     0.62200
H940        H  0.13220456  0.03651065  0.40382777     0.12900
H941        H  0.13242155  0.44697668  0.31592015     0.12900
C942        C  0.07517527  0.44493893  0.35407899     0.62400
F943        F  0.21280969  0.04140273  0.35930338    -0.22700
F944        F  0.20624551  0.54551089  0.37275789    -0.20100
F945        F  0.17423572  0.06141913  0.32276279    -0.19700
F946        F  0.04624899  0.46212836  0.34467890    -0.19800
F947        F  0.07538690  0.92343851  0.39199870    -0.20100
F948        F  0.08111568  0.42030833  0.33014124    -0.22800
C949        C  0.13213000  0.47134371  0.10929672    -0.05600
C950        C  0.11384492  0.50157968  0.10858617     0.00300
C951        C  0.11977511  0.02581174  0.13491090    -0.08300
C952        C  0.14385708  0.01963610  0.16016308    -0.05700
C953        C  0.16533263  0.49137595  0.15670634     0.00300
C954        C  0.15725080  0.46527410  0.13363816    -0.08200
C955        C  0.17355642  0.43065458  0.13559388     0.62200
H956        H  0.12551195  0.45192758  0.09132629     0.12900
H957        H  0.14841316  0.03829245  0.17951393     0.12900
C958        C  0.10147644  0.05935394  0.13411783     0.62400
F959        F  0.16964927  0.91456782  0.16480877    -0.22700
F960        F  0.21161063  0.93729086  0.13375709    -0.20100
F961        F  0.20826537  0.43306132  0.13253997    -0.19700
F962        F  0.06686430  0.05479616  0.13617582    -0.19800
F963        F  0.10514139  0.57398164  0.09824070    -0.20100
F964        F  0.11795568  0.58441995  0.15206596    -0.22800
C965        C  0.36979392  0.97174363  0.11718277    -0.05600
C966        C  0.39111676  0.50034342  0.11802903     0.00300
C967        C  0.37492164  0.52816929  0.13339655    -0.08300
C968        C  0.35067074  0.52225232  0.15866272    -0.05700
C969        C  0.34187820  0.48949069  0.16848884     0.00300
C970        C  0.34467412  0.96435524  0.14121576    -0.08200
C971        C  0.32517192  0.93140560  0.13911070     0.62200
H972        H  0.37403317  0.95459625  0.09647659     0.12900
H973        H  0.33768522  0.54313130  0.17053414     0.12900
C974        C  0.38302552  0.56383180  0.12287777     0.62400
F975        F  0.33769515  0.91066386  0.11401674    -0.22700
F976        F  0.31551791  0.41965463  0.15614202    -0.20100
F977        F  0.32756968  0.91431368  0.16937685    -0.19700
F978        F  0.37575127  0.56776926  0.08909436    -0.19800
F979        F  0.40451943  0.07403526  0.12173662    -0.20100
F980        F  0.36438456  0.58730477  0.14082005    -0.22800
C981        C  0.03253547  0.60951472  0.36202031    -0.05600
C982        C  0.00067870  0.60227006  0.37601925     0.00300
C983        C  0.47826905  0.61008477  0.35678177    -0.08300
C984        C  0.48128734  0.63517863  0.33188539    -0.05700
C985        C  0.00798407  0.65363215  0.32723451     0.00300
C986        C  0.03688649  0.63531249  0.33788288    -0.08200
C987        C  0.07210504  0.64351091  0.32464847     0.62200
H988        H  0.05412972  0.59538859  0.37091609     0.12900
H989        H  0.46124858  0.63889616  0.31368651     0.12900
C990        C  0.44687136  0.58811886  0.35800058     0.62400
F991        F  0.09650910  0.62290498  0.33874379    -0.22700
F992        F  0.08010502  0.67659689  0.33204544    -0.20100
F993        F  0.07357648  0.63900988  0.29022861    -0.19700
F994        F  0.43193435  0.59077827  0.38934369    -0.19800
F995        F  0.45552466  0.55492125  0.35210111    -0.20100
F996        F  0.42327396  0.59754369  0.33405609    -0.22800
C997        C  0.02268524  0.82858149  0.37521142    -0.05600
C998        C  0.99955332  0.82970927  0.34837412     0.00300
C999        C  0.47225292  0.85418462  0.34794113    -0.08300
C1000       C  0.47294814  0.87957386  0.37263724    -0.05700
C1001       C  0.99846016  0.87944537  0.39981729     0.00300
C1002       C  0.02117579  0.85175745  0.40214667    -0.08200
C1003       C  0.04334621  0.84620661  0.43286326     0.62200
H1004       H  0.04171644  0.80898251  0.37507826     0.12900
H1005       H  0.45396638  0.89927896  0.37196508     0.12900
C1006       C  0.44197778  0.85324601  0.32447179     0.62400
F1007       F  0.06483540  0.81898266  0.42882204    -0.22700
F1008       F  0.02308068  0.83978160  0.46058439    -0.20100
F1009       F  0.06292454  0.87435168  0.43897411    -0.19700
F1010       F  0.44155611  0.82567659  0.30327746    -0.19800
F1011       F  0.44131403  0.88221752  0.30514851    -0.20100
F1012       F  0.41291122  0.85161246  0.34369870    -0.22800
C1013       C  0.47410848  0.88465452  0.13413286    -0.05600
C1014       C  0.00235262  0.90067702  0.12340020     0.00300
C1015       C  0.03307021  0.88869038  0.13713304    -0.08300
C1016       C  0.03196945  0.86318653  0.16182561    -0.05700
C1017       C  0.00109263  0.85040263  0.17389672     0.00300
C1018       C  0.47371968  0.85981099  0.15948446    -0.08200
C1019       C  0.43968910  0.84481280  0.16941079     0.62200
H1020       H  0.45053887  0.89233990  0.12268053     0.12900
H1021       H  0.05522600  0.85273509  0.17172760     0.12900
C1022       C  0.06669019  0.90334450  0.12591764     0.62400
F1023       F  0.41587917  0.87017049  0.17250204    -0.22700
F1024       F  0.44069157  0.82777358  0.19976308    -0.20100
F1025       F  0.42923811  0.82268311  0.14467748    -0.19700
F1026       F  0.06732942  0.93739044  0.13315289    -0.19800
F1027       F  0.07073276  0.89899471  0.09166335    -0.20100
F1028       F  0.09373376  0.88824444  0.14207528    -0.22800
C1029       C  0.01990129  0.67488124  0.12984875    -0.05600
C1030       C  0.99367600  0.67443601  0.15376306     0.00300
C1031       C  0.47279886  0.65786487  0.14598850    -0.08300
C1032       C  0.47325486  0.63294713  0.12079225    -0.05700
C1033       C  0.99741807  0.62476031  0.10245232     0.00300
C1034       C  0.02167804  0.65112359  0.10357170    -0.08200
C1035       C  0.05005853  0.65353037  0.07803611     0.62200
H1036       H  0.03937698  0.69394305  0.13228670     0.12900
H1037       H  0.45013570  0.62042299  0.11380651     0.12900
C1038       C  0.43968146  0.66749527  0.16276045     0.62400
F1039       F  0.07277149  0.67899914  0.08569150    -0.22700
F1040       F  0.03686467  0.65999190  0.04649323    -0.20100
F1041       F  0.06748007  0.62353798  0.07735360    -0.19700
F1042       F  0.43347064  0.70138955  0.15773752    -0.19800
F1043       F  0.44141544  0.66107216  0.19692072    -0.20100
F1044       F  0.41262278  0.64953435  0.14984984    -0.22800
N1045       N  0.01082424  0.75790497  0.69716337    -0.36500
N1046       N  0.00803242  0.80383654  0.75447446    -0.57000
N1047       N  0.01043659  0.74664155  0.80055599    -0.36500
N1048       N  0.00984284  0.70062940  0.74336520    -0.57000
C1049       C  0.00522447  0.78735729  0.68088303     0.27100
C1050       C  0.00463389  0.73268008  0.67506027     0.27100
C1051       C  0.00236554  0.77163320  0.82235570     0.27100
C1052       C  0.00456094  0.71701433  0.81647271     0.27100
C1053       C  0.01236529  0.82670243  0.72955271     0.35700
C1054       C  0.01154915  0.82064967  0.78387498     0.35700
C1055       C  0.01294650  0.68370860  0.71400342     0.35700
C1056       C  0.01363522  0.67767996  0.76824217     0.35700
C1057       C  0.99655601  0.78076842  0.64769546    -0.21700
C1058       C  0.99583484  0.74636618  0.64412646    -0.21700
C1059       C  0.99176432  0.75764241  0.85261748    -0.21700
C1060       C  0.99344050  0.72327255  0.84901672    -0.21700
C1061       C  0.01850481  0.85824206  0.74317626    -0.22800
C1062       C  0.01815590  0.85438902  0.77754187    -0.22800
C1063       C  0.01868145  0.64982064  0.72032760    -0.22800
C1064       C  0.01887637  0.64597685  0.75464697    -0.22800
C1065       C  0.00832695  0.82011859  0.69476504    -0.18100
C1066       C  0.00733545  0.69763326  0.68161090    -0.18100
C1067       C  0.01000508  0.68440463  0.80300427    -0.18100
C1068       C  0.00543035  0.80673454  0.81624908    -0.18100
H1069       H  0.99085910  0.79885558  0.62810180     0.14800
H1070       H  0.98946911  0.73302025  0.62124686     0.14800
H1071       H  0.98370592  0.77077929  0.87510087     0.14800
H1072       H  0.98696685  0.70499135  0.86821712     0.14800
H1073       H  0.02224220  0.88170998  0.72977208     0.13000
H1074       H  0.02158623  0.87434125  0.79577373     0.13000
H1075       H  0.02158300  0.62976376  0.70211592     0.13000
H1076       H  0.02196115  0.62242517  0.76804614     0.13000
H1077       H  0.02092445  0.75531244  0.72106912     0.26300
H1078       H  0.02244458  0.74955008  0.77748685     0.26300
O1079       O  0.00068956  0.60331731  0.54482700    -0.86300
O1080       O  0.00308474  0.91259795  0.56458163    -0.86500
O1081       O  0.44708606  0.50881314  0.59898587    -0.88200
O1082       O  0.06024054  0.50862607  0.59224859    -0.86900
O1083       O  0.09695841  0.00422227  0.55494018    -0.86500
O1084       O  0.40415895  0.00821181  0.55734635    -0.87900
O1085       O  0.00459519  0.95703868  0.60161343    -0.86400
O1086       O  0.00139858  0.56651552  0.58954766    -0.86000
Zr1087     Zr  0.00100638  0.00905320  0.56870393     2.84300
O1088       O  0.03448239  0.97196285  0.53743980    -1.07900
O1089       O  0.46719297  0.54198926  0.53414609    -1.08700
C1090       C  0.00086614  0.59651892  0.57670137     1.06800
C1091       C  0.00495992  0.92530078  0.59445513     1.06700
C1092       C  0.41578171  0.50620381  0.58984387     1.09700
C1093       C  0.09078712  0.50558856  0.58094834     1.07500
H1094       H  0.45052730  0.95963180  0.55332015     0.33000
O1095       O  0.46470361  0.97237527  0.53801935    -1.28900
H1096       H  0.05065519  0.55553119  0.54116197     0.32700
O1097       O  0.03601549  0.54026330  0.52908321    -1.30600
O1098       O  0.99969499  0.90020086  0.95399476    -0.86300
O1099       O  0.00333943  0.59335720  0.93578693    -0.87800
O1100       O  0.40300352  0.94742490  0.00641258    -0.86400
O1101       O  0.09607289  0.94613770  0.00291375    -0.86500
O1102       O  0.09579362  0.55782392  0.99587235    -0.86200
O1103       O  0.40416143  0.55684418  0.99970274    -0.86000
O1104       O  0.43995228  0.99371280  0.90844557    -0.86300
O1105       O  0.05300273  0.99123664  0.90302154    -0.85800
O1106       O  0.40102269  0.99720344  0.95114743    -0.86900
O1107       O  0.09455319  0.99648142  0.94311787    -0.86000
O1108       O  0.44470226  0.90721764  0.00941257    -0.86400
O1109       O  0.44541908  0.59767292  0.99575423    -0.86200
O1110       O  0.05493247  0.59887146  0.99280189    -0.85800
O1111       O  0.05594975  0.90480281  0.00803705    -0.86200
O1112       O  0.99778679  0.93681670  0.90927804    -0.86500
O1113       O  0.99990993  0.54907925  0.89863822    -0.87800
Zr1114     Zr  0.00094902  0.93274253  0.00660650     2.83100
Zr1115     Zr  0.99946793  0.57118351  0.99365227     2.83500
Zr1116     Zr  0.43043374  0.00243606  0.00491354     2.84100
Zr1117     Zr  0.06806017  0.00063561  0.99834959     2.83400
Zr1118     Zr  0.99817706  0.99373100  0.93174714     2.84200
O1119       O  0.03246676  0.53408615  0.96173611    -1.08400
O1120       O  0.46372201  0.96581991  0.97261480    -1.07900
C1121       C  0.99878214  0.90694969  0.92210990     1.06700
C1122       C  0.00271865  0.58078732  0.90567200     1.09400
C1123       C  0.41346057  0.91665982  0.00817173     1.06900
C1124       C  0.08694055  0.91506007  0.00581132     1.07300
C1125       C  0.08600974  0.58879256  0.99424448     1.06900
C1126       C  0.41442144  0.58774536  0.99729050     1.06400
C1127       C  0.40927931  0.99504654  0.91973977     1.06800
C1128       C  0.08427646  0.99305731  0.91243759     1.06300
H1129       H  0.44922686  0.54659039  0.95139797     0.33000
O1130       O  0.46397939  0.53379947  0.96589372    -1.29500
H1131       H  0.04777846  0.94803575  0.95517548     0.33000
O1132       O  0.03378876  0.96327945  0.96807220    -1.30900
N1133       N  0.25260831  0.48612427  0.69875419    -0.36500
N1134       N  0.30195681  0.48065294  0.75349207    -0.57000
N1135       N  0.24711700  0.48626229  0.80138277    -0.36500
N1136       N  0.19783795  0.49099496  0.74686062    -0.57000
C1137       C  0.28168781  0.49159211  0.68153132     0.27100
C1138       C  0.22689161  0.49496136  0.67800006     0.27100
C1139       C  0.27247607  0.47568804  0.82178499     0.27100
C1140       C  0.21779706  0.48166757  0.81847840     0.27100
C1141       C  0.32397902  0.48264337  0.72752504     0.35700
C1142       C  0.32062541  0.48220852  0.78195634     0.35700
C1143       C  0.17894591  0.49268294  0.71856208     0.35700
C1144       C  0.17622212  0.49439591  0.77302221     0.35700
C1145       C  0.27422566  0.50385127  0.64962363    -0.21700
C1146       C  0.23974790  0.50602145  0.64745139    -0.21700
C1147       C  0.25904690  0.46400060  0.85187845    -0.21700
C1148       C  0.22458632  0.46791091  0.84986038    -0.21700
C1149       C  0.35683314  0.48481299  0.73953580    -0.22800
C1150       C  0.35462920  0.48548370  0.77394142    -0.22800
C1151       C  0.14511070  0.49688570  0.72683764    -0.22800
C1152       C  0.14349059  0.49876012  0.76125566    -0.22800
C1153       C  0.31502827  0.48602276  0.69326051    -0.18100
C1154       C  0.19196026  0.49314353  0.68535934    -0.18100
C1155       C  0.18505765  0.49079124  0.80733116    -0.18100
C1156       C  0.30758866  0.47818809  0.81495369    -0.18100
H1157       H  0.29182181  0.51084894  0.62989311     0.14800
H1158       H  0.22571637  0.51493094  0.62582322     0.14800
H1159       H  0.27272137  0.45390209  0.87321030     0.14800
H1160       H  0.20652929  0.46131565  0.86932196     0.14800
H1161       H  0.37995393  0.48721550  0.72507399     0.13000
H1162       H  0.37580526  0.48798473  0.79096696     0.13000
H1163       H  0.12379750  0.49918257  0.70992618     0.13000
H1164       H  0.12059396  0.50208882  0.77585241     0.13000
H1165       H  0.25038248  0.47420880  0.72196123     0.26300
H1166       H  0.24982939  0.49950604  0.77891482     0.26300
N1167       N  0.25199510  0.69978329  0.99699379    -0.36500
N1168       N  0.30343928  0.75163548  0.00081865    -0.57000
N1169       N  0.25089048  0.80186617  0.00725937    -0.36500
N1170       N  0.19968691  0.75033833  0.00541345    -0.57000
C1171       C  0.28004823  0.68061465  0.99971868     0.27100
C1172       C  0.22514913  0.67971285  0.00360417     0.27100
C1173       C  0.27842050  0.81989524  0.01620065     0.27100
C1174       C  0.22341752  0.81936876  0.01741016     0.27100
C1175       C  0.32299573  0.72562327  0.99094383     0.35700
C1176       C  0.32249891  0.77965584  0.99737802     0.35700
C1177       C  0.18042374  0.72336046  0.99777864     0.35700
C1178       C  0.18019740  0.77778461  0.00033380     0.35700
C1179       C  0.27094143  0.64776818  0.00758970    -0.21700
C1180       C  0.23625535  0.64708479  0.00941556    -0.21700
C1181       C  0.26840631  0.84919574  0.03237118    -0.21700
C1182       C  0.23357614  0.84885833  0.03313868    -0.21700
C1183       C  0.35480680  0.73706225  0.98155304    -0.22800
C1184       C  0.35448345  0.77140939  0.98560927    -0.22800
C1185       C  0.14832843  0.73373610  0.98813612    -0.22800
C1186       C  0.14838993  0.76828958  0.98921876    -0.22800
C1187       C  0.31342653  0.69148309  0.99309169    -0.18100
C1188       C  0.19088706  0.68955347  0.00168773    -0.18100
C1189       C  0.18960061  0.81071046  0.00986628    -0.18100
C1190       C  0.31193580  0.81225405  0.00673372    -0.18100
H1191       H  0.28747383  0.62625455  0.01059623     0.14800
H1192       H  0.22101734  0.62482712  0.01370557     0.14800
H1193       H  0.28449844  0.86919149  0.04170041     0.14800
H1194       H  0.21754876  0.86846899  0.04332280     0.14800
H1195       H  0.37608829  0.72215389  0.97304642     0.13000
H1196       H  0.37546813  0.78831103  0.98082216     0.13000
H1197       H  0.12691024  0.71819744  0.98133140     0.13000
H1198       H  0.12707862  0.78446115  0.98368023     0.13000
H1199       H  0.25104623  0.72406020  0.98736159     0.26300
H1200       H  0.25074061  0.78151413  0.99081398     0.26300
C1201       C  0.35450831  0.84617938  0.53151140    -0.05600
C1202       C  0.33726660  0.83979119  0.00685677     0.00300
C1203       C  0.34009818  0.86272684  0.97970734    -0.08300
C1204       C  0.36537331  0.88765919  0.98103697    -0.05700
C1205       C  0.38746187  0.89001450  0.00857151     0.00300
C1206       C  0.37956894  0.87125374  0.53360051    -0.08200
C1207       C  0.40066201  0.87442599  0.56527640     0.62200
H1208       H  0.35091548  0.82845880  0.55196825     0.13000
H1209       H  0.36820653  0.90546015  0.96052302     0.12900
C1210       C  0.31641195  0.86075921  0.94966649     0.62400
F1211       F  0.38985679  0.85239673  0.59008850    -0.22700
F1212       F  0.39816618  0.90688183  0.57771135    -0.20100
F1213       F  0.43877303  0.86075436  0.05930460    -0.19700
F1214       F  0.28159537  0.86995632  0.45458972    -0.19800
F1215       F  0.31730063  0.82879289  0.93586557    -0.20100
F1216       F  0.32527166  0.88353687  0.92475191    -0.22800
C1217       C  0.37011005  0.61901631  0.96743443    -0.05600
C1218       C  0.38880770  0.61436756  0.99695985     0.00300
C1219       C  0.37295077  0.62830106  0.51929029    -0.08300
C1220       C  0.34939759  0.65454934  0.51654545    -0.05700
C1221       C  0.34042113  0.66577409  0.99247462     0.00300
C1222       C  0.34556650  0.64426638  0.96464420    -0.08200
C1223       C  0.32615204  0.64865830  0.93192754     0.62200
H1224       H  0.37580833  0.60367603  0.94604028     0.12900
H1225       H  0.33629497  0.66366526  0.53871275     0.12900
C1226       C  0.37908317  0.61144983  0.55292343     0.62400
F1227       F  0.33729825  0.62669822  0.90722534    -0.22700
F1228       F  0.36166123  0.65051663  0.39545780    -0.20100
F1229       F  0.29209059  0.64265166  0.93709673    -0.19700
F1230       F  0.41307487  0.61367561  0.56087114    -0.19800
F1231       F  0.42290953  0.60629389  0.06018727    -0.20100
F1232       F  0.36063430  0.62630929  0.57851648    -0.22800
C1233       C  0.11012616  0.86192855  0.02924509    -0.05600
C1234       C  0.11403914  0.88911929  0.00685401     0.00300
C1235       C  0.14009260  0.88921383  0.48645860    -0.08300
C1236       C  0.16291065  0.86217185  0.48723416    -0.05700
C1237       C  0.16340126  0.83763281  0.01093093     0.00300
C1238       C  0.13496799  0.83688965  0.03279848    -0.08200
C1239       C  0.12961930  0.81109304  0.06066994     0.62200
H1240       H  0.08774993  0.86064792  0.04497663     0.12900
H1241       H  0.18368832  0.86116820  0.46942917     0.12900
C1242       C  0.14547299  0.91691106  0.46062071     0.62400
F1243       F  0.16202571  0.81674122  0.58365720    -0.22700
F1244       F  0.13171564  0.77952444  0.55354920    -0.20100
F1245       F  0.10120480  0.79201466  0.05353956    -0.19700
F1246       F  0.15359718  0.94673172  0.47661738    -0.19800
F1247       F  0.12118085  0.92256392  0.94037719    -0.20100
F1248       F  0.17678393  0.91255220  0.94011557    -0.22800
C1249       C  0.12786055  0.62137066  0.02678224    -0.05600
C1250       C  0.11271163  0.61471803  0.99561331     0.00300
C1251       C  0.11973752  0.63269420  0.45598947    -0.08300
C1252       C  0.14675445  0.65578884  0.45645482    -0.05700
C1253       C  0.16469027  0.66287519  0.00102894     0.00300
C1254       C  0.15269512  0.64647863  0.03041350    -0.08200
C1255       C  0.16575048  0.65511318  0.06534373     0.62200
H1256       H  0.11989767  0.60693317  0.04838187     0.12900
H1257       H  0.15410060  0.66904578  0.43372947     0.12900
C1258       C  0.09950026  0.62760840  0.42411725     0.62400
F1259       F  0.16774816  0.69196478  0.55456409    -0.22700
F1260       F  0.20228158  0.64688812  0.55262543    -0.20100
F1261       F  0.16889197  0.68960669  0.06908212    -0.19700
F1262       F  0.06596327  0.63567458  0.42992579    -0.19800
F1263       F  0.10704423  0.59465848  0.92366778    -0.20100
F1264       F  0.12286000  0.64680707  0.90863277    -0.22800
C1265       C  0.33113871  0.01978044  0.86944770    -0.05600
C1266       C  0.33170056  0.47748735  0.84409008     0.00300
C1267       C  0.35830132  0.45376098  0.84740085    -0.08300
C1268       C  0.38350421  0.45919113  0.87188203    -0.05700
C1269       C  0.38160799  0.99525835  0.89439702     0.00300
C1270       C  0.35347499  0.01746926  0.89679633    -0.08200
C1271       C  0.34738791  0.03954937  0.92740397     0.62200
H1272       H  0.31041230  0.03760954  0.87002977     0.12900
H1273       H  0.40482410  0.44208352  0.87329514     0.12900
C1274       C  0.36105244  0.42209979  0.82645194     0.62400
F1275       F  0.32143172  0.55615200  0.91127472    -0.22700
F1276       F  0.37673532  0.55238231  0.92264955    -0.20100
F1277       F  0.34040297  0.01970098  0.95521002    -0.19700
F1278       F  0.38963008  0.42412409  0.80648251    -0.19800
F1279       F  0.33345353  0.94438028  0.79444467    -0.20100
F1280       F  0.36993048  0.91720239  0.82704097    -0.22800
C1281       C  0.13399446  0.01996586  0.88709221    -0.05600
C1282       C  0.11077766  0.99321560  0.88610083     0.00300
C1283       C  0.10766748  0.46880427  0.85934082    -0.08300
C1284       C  0.13354795  0.46833311  0.83503643    -0.05700
C1285       C  0.15796459  0.49394386  0.83322663     0.00300
C1286       C  0.15782205  0.02511444  0.86143314    -0.08200
C1287       C  0.17807592  0.05767750  0.86015219     0.62200
H1288       H  0.13245362  0.03766846  0.90761122     0.12900
H1289       H  0.13464336  0.44822917  0.81664990     0.12900
C1290       C  0.08039494  0.44179784  0.85842292     0.62400
F1291       F  0.21227424  0.05108640  0.86293564    -0.22700
F1292       F  0.20223209  0.54999707  0.88302750    -0.20100
F1293       F  0.17200985  0.07384687  0.82987774    -0.19700
F1294       F  0.04986457  0.45594903  0.84910060    -0.19800
F1295       F  0.10419051  0.91260876  0.84139543    -0.20100
F1296       F  0.08794738  0.41652993  0.83562106    -0.22800
C1297       C  0.13627250  0.47346288  0.60928156    -0.05600
C1298       C  0.11823641  0.50373152  0.60614957     0.00300
C1299       C  0.12048453  0.04004103  0.62900815    -0.08300
C1300       C  0.14683091  0.04098292  0.65261651    -0.05700
C1301       C  0.16766313  0.49619295  0.65677290     0.00300
C1302       C  0.16089935  0.46906295  0.63453518    -0.08200
C1303       C  0.17892192  0.43544007  0.63805641     0.62200
H1304       H  0.13021136  0.45297859  0.59231326     0.12900
H1305       H  0.15313749  0.06433787  0.66523735     0.12900
C1306       C  0.10028331  0.07145117  0.62158076     0.62400
F1307       F  0.16134452  0.94304499  0.69244890    -0.22700
F1308       F  0.20506133  0.94680193  0.65633162    -0.20100
F1309       F  0.21318234  0.43939208  0.63218253    -0.19700
F1310       F  0.06739616  0.06749996  0.63289142    -0.19800
F1311       F  0.11296333  0.57476939  0.58957913    -0.20100
F1312       F  0.12385966  0.58968191  0.64275664    -0.22800
C1313       C  0.38603402  0.98507051  0.63783452    -0.05600
C1314       C  0.39018720  0.50214722  0.61668285     0.00300
C1315       C  0.38131061  0.52811898  0.63952795    -0.08300
C1316       C  0.35804335  0.52117427  0.66520183    -0.05700
C1317       C  0.34266964  0.48962014  0.66816865     0.00300
C1318       C  0.36180568  0.98567467  0.66392007    -0.08200
C1319       C  0.35650423  0.95459848  0.68574502     0.62200
H1320       H  0.40213063  0.96325817  0.63441574     0.12900
H1321       H  0.35078521  0.54100938  0.68254623     0.12900
C1322       C  0.39441905  0.56373026  0.63767642     0.62400
F1323       F  0.37806867  0.92867715  0.67673468    -0.22700
F1324       F  0.30099301  0.43062829  0.64377163    -0.20100
F1325       F  0.36247124  0.96198163  0.71916138    -0.19700
F1326       F  0.41358279  0.56933354  0.60927928    -0.19800
F1327       F  0.40346474  0.08065845  0.59286874    -0.20100
F1328       F  0.36740271  0.58588526  0.63715363    -0.22800
C1329       C  0.03634515  0.61861161  0.86792226    -0.05600
C1330       C  0.00478169  0.60488820  0.87693811     0.00300
C1331       C  0.46814697  0.62297376  0.86961258    -0.08300
C1332       C  0.47008340  0.64719451  0.84380719    -0.05700
C1333       C  0.00950094  0.65539996  0.82686207     0.00300
C1334       C  0.03917627  0.64384565  0.84294381    -0.08200
C1335       C  0.07341383  0.65830062  0.83328440     0.62200
H1336       H  0.05869053  0.60944361  0.88057655     0.12900
H1337       H  0.44724230  0.65905024  0.83453206     0.12900
C1338       C  0.43429420  0.61551150  0.88592605     0.62400
F1339       F  0.09930115  0.64358256  0.85117236    -0.22700
F1340       F  0.07400593  0.69262809  0.83927760    -0.20100
F1341       F  0.07963823  0.65254321  0.79954442    -0.19700
F1342       F  0.43379292  0.62955061  0.91776847    -0.19800
F1343       F  0.42936463  0.58114491  0.88837151    -0.20100
F1344       F  0.40769171  0.62886671  0.86761209    -0.22800
C1345       C  0.02481536  0.82968522  0.87136358    -0.05600
C1346       C  0.00081569  0.83036648  0.84526710     0.00300
C1347       C  0.46672132  0.85957711  0.84996095    -0.08300
C1348       C  0.47064394  0.88357768  0.87550630    -0.05700
C1349       C  0.99891228  0.87856561  0.89781165     0.00300
C1350       C  0.02374583  0.85279411  0.89829701    -0.08200
C1351       C  0.04964732  0.85029982  0.92642324     0.62200
H1352       H  0.04464684  0.81091150  0.87025371     0.12900
H1353       H  0.45307068  0.90454174  0.87663594     0.12900
C1354       C  0.43626433  0.86365127  0.82714218     0.62400
F1355       F  0.07263650  0.82460860  0.92092431    -0.22700
F1356       F  0.03349156  0.84392273  0.95667306    -0.20100
F1357       F  0.06747295  0.88009578  0.92891181    -0.19700
F1358       F  0.43160236  0.83696666  0.80535824    -0.19800
F1359       F  0.43976401  0.89293744  0.80852274    -0.20100
F1360       F  0.40751410  0.86605044  0.84689459    -0.22800
C1361       C  0.46939171  0.88728208  0.63284947    -0.05600
C1362       C  0.00687115  0.90115758  0.62262829     0.00300
C1363       C  0.03797195  0.88772816  0.63398081    -0.08300
C1364       C  0.03746247  0.86103591  0.65731636    -0.05700
C1365       C  0.00697378  0.84926483  0.67110344     0.00300
C1366       C  0.46815741  0.86289406  0.65851973    -0.08200
C1367       C  0.43415759  0.85028712  0.67134124     0.62200
H1368       H  0.44633857  0.89578947  0.62095381     0.12900
H1369       H  0.06088599  0.84961868  0.66566226     0.12900
C1370       C  0.07132992  0.90340804  0.62365090     0.62400
F1371       F  0.40745889  0.86579636  0.65506810    -0.22700
F1372       F  0.43134767  0.85714361  0.70535085    -0.20100
F1373       F  0.43105235  0.81600499  0.66640910    -0.19700
F1374       F  0.07289728  0.93556369  0.63679670    -0.19800
F1375       F  0.07391346  0.90529282  0.58907313    -0.20100
F1376       F  0.09863911  0.88518153  0.63562167    -0.22800
C1377       C  0.02808019  0.67295931  0.62803840    -0.05600
C1378       C  0.00278479  0.67385917  0.65286441     0.00300
C1379       C  0.46941205  0.65148650  0.65347303    -0.08300
C1380       C  0.47289277  0.62530702  0.62998228    -0.05700
C1381       C  0.00086597  0.62524033  0.60076237     0.00300
C1382       C  0.02710863  0.64960219  0.60140675    -0.08200
C1383       C  0.05435184  0.65052833  0.57454877     0.62200
H1384       H  0.04879422  0.69075547  0.62988026     0.12900
H1385       H  0.45459853  0.60533220  0.62987959     0.12900
C1386       C  0.43694537  0.65308884  0.67386563     0.62400
F1387       F  0.07961319  0.67352533  0.58203247    -0.22700
F1388       F  0.04019879  0.65948313  0.54402768    -0.20100
F1389       F  0.06898005  0.61919038  0.57164270    -0.19700
F1390       F  0.43161301  0.68460887  0.68765595    -0.19800
F1391       F  0.43785563  0.62944891  0.69940733    -0.20100
F1392       F  0.40966616  0.64617370  0.65314508    -0.22800
N1393       N  0.50350024  0.25910357  0.20058930    -0.36500
N1394       N  0.50360236  0.30490656  0.25778213    -0.57000
N1395       N  0.51026549  0.24796433  0.30334979    -0.36500
N1396       N  0.50838128  0.20219475  0.24587536    -0.57000
C1397       C  0.49325904  0.28828168  0.18613088     0.27100
C1398       C  0.49540902  0.23367195  0.17931511     0.27100
C1399       C  0.50112799  0.27288077  0.32489457     0.27100
C1400       C  0.50377739  0.21822537  0.31882396     0.27100
C1401       C  0.50988887  0.32670294  0.23238187     0.35700
C1402       C  0.51247233  0.32069077  0.28658058     0.35700
C1403       C  0.51214509  0.18578343  0.21622756     0.35700
C1404       C  0.51493474  0.17960788  0.27055446     0.35700
C1405       C  0.47854934  0.28131124  0.15521097    -0.21700
C1406       C  0.47988306  0.24686609  0.15092723    -0.21700
C1407       C  0.48892066  0.25880245  0.35445506    -0.21700
C1408       C  0.49090135  0.22438679  0.35078011    -0.21700
C1409       C  0.52362479  0.35625784  0.24499611    -0.22800
C1410       C  0.52477431  0.35262366  0.27949062    -0.22800
C1411       C  0.52151741  0.15265573  0.22213709    -0.22800
C1412       C  0.52276199  0.14862185  0.25649045    -0.22800
C1413       C  0.50016022  0.32109715  0.19861181    -0.18100
C1414       C  0.50298959  0.19908212  0.18431228    -0.18100
C1415       C  0.51054723  0.18574765  0.30546046    -0.18100
C1416       C  0.50531495  0.30790450  0.31907184    -0.18100
H1417       H  0.46844721  0.29926127  0.13733056     0.14800
H1418       H  0.47074703  0.23314677  0.12922325     0.14800
H1419       H  0.47979670  0.27190781  0.37655051     0.14800
H1420       H  0.48359626  0.20605739  0.36962093     0.14800
H1421       H  0.53069522  0.37856305  0.23093531     0.13000
H1422       H  0.53299485  0.37149474  0.29735556     0.13000
H1423       H  0.52564652  0.13303767  0.20368300     0.13000
H1424       H  0.52807081  0.12531233  0.26960349     0.13000
H1425       H  0.51877793  0.25713092  0.22178944     0.26300
H1426       H  0.52329143  0.25103430  0.28075898     0.26300
O1427       O  0.49898741  0.10397635  0.04746112    -0.86300
O1428       O  0.50329976  0.41141995  0.06295544    -0.86500
O1429       O  0.94857169  0.00854620  0.09795410    -0.88200
O1430       O  0.55709521  0.00867676  0.09480642    -0.86900
O1431       O  0.59829640  0.50195650  0.05236755    -0.86500
O1432       O  0.90307226  0.50307518  0.05664159    -0.87900
O1433       O  0.50201865  0.45456183  0.10138056    -0.86400
O1434       O  0.50018155  0.06685968  0.09186842    -0.86000
Zr1435     Zr  0.50211934  0.50728652  0.06933323     2.84300
O1436       O  0.53598695  0.47170757  0.03616933    -1.07900
O1437       O  0.96648113  0.03846673  0.03130889    -1.08700
C1438       C  0.49971972  0.09700061  0.07928612     1.06800
C1439       C  0.50299612  0.42299543  0.09339935     1.06700
C1440       C  0.91746095  0.00496948  0.08899106     1.09700
C1441       C  0.58771694  0.00602290  0.08371036     1.07500
H1442       H  0.95182333  0.45830081  0.05203119     0.33000
O1443       O  0.96558348  0.47166327  0.03699624    -1.28900
H1444       H  0.54811012  0.05556898  0.04391336     0.32700
O1445       O  0.53359608  0.04039915  0.03157002    -1.30600
O1446       O  0.49932168  0.40342130  0.45576670    -0.86300
O1447       O  0.50309417  0.09290977  0.43673223    -0.87800
O1448       O  0.90456859  0.44827668  0.50796859    -0.86400
O1449       O  0.59750352  0.44966693  0.50266606    -0.86500
O1450       O  0.59738296  0.05571865  0.49792998    -0.86200
O1451       O  0.90424815  0.05971861  0.49961576    -0.86000
O1452       O  0.94033041  0.48819062  0.40767568    -0.86300
O1453       O  0.55015919  0.49180607  0.40280160    -0.85800
O1454       O  0.90136609  0.49382871  0.45019139    -0.86900
O1455       O  0.59269741  0.49603443  0.44186906    -0.86000
O1456       O  0.94582707  0.40751465  0.50965842    -0.86400
O1457       O  0.94603359  0.09967022  0.49310953    -0.86200
O1458       O  0.55708526  0.09721328  0.49435097    -0.85800
O1459       O  0.55660339  0.40924326  0.50935029    -0.86200
O1460       O  0.49552110  0.44015683  0.41136339    -0.86500
O1461       O  0.49826503  0.04896528  0.39928881    -0.87800
Zr1462     Zr  0.50054026  0.43614414  0.50787241     2.83100
Zr1463     Zr  0.50166514  0.07020141  0.49421793     2.83500
Zr1464     Zr  0.93193370  0.50310352  0.50281485     2.84100
Zr1465     Zr  0.56835431  0.50307611  0.49860827     2.83400
Zr1466     Zr  0.49715909  0.49784373  0.43354418     2.84200
O1467       O  0.53344595  0.03265272  0.46175895    -1.08400
O1468       O  0.96466383  0.46504577  0.47138638    -1.07900
C1469       C  0.49752786  0.41010312  0.42397683     1.06700
C1470       C  0.50117806  0.08062865  0.40660296     1.09400
C1471       C  0.91465952  0.41737356  0.50986710     1.06900
C1472       C  0.58784930  0.41896114  0.50671665     1.07300
C1473       C  0.58797057  0.08689047  0.49643946     1.06900
C1474       C  0.91474474  0.09048720  0.49605788     1.06400
C1475       C  0.90971473  0.48888140  0.41910879     1.06800
C1476       C  0.58162314  0.49182444  0.41141800     1.06300
H1477       H  0.95054504  0.04682392  0.44915104     0.33000
O1478       O  0.96478112  0.03409440  0.46432710    -1.29500
H1479       H  0.54626098  0.45107609  0.45602377     0.33000
O1480       O  0.53280622  0.46658759  0.46908669    -1.30900
N1481       N  0.75126135  0.98919151  0.19770693    -0.36500
N1482       N  0.80235695  0.98500460  0.25052508    -0.57000
N1483       N  0.74904261  0.98643775  0.30043804    -0.36500
N1484       N  0.69786326  0.99115866  0.24817370    -0.57000
C1485       C  0.77959624  0.99479578  0.17930367     0.27100
C1486       C  0.72460425  0.99734386  0.17792260     0.27100
C1487       C  0.77564789  0.97677607  0.31962983     0.27100
C1488       C  0.72062078  0.97952444  0.31827768     0.27100
C1489       C  0.82348791  0.98614762  0.22381223     0.35700
C1490       C  0.82208794  0.98566074  0.27828996     0.35700
C1491       C  0.67820888  0.99511671  0.22061361     0.35700
C1492       C  0.67735977  0.99438057  0.27529894     0.35700
C1493       C  0.77075907  0.00657738  0.14758539    -0.21700
C1494       C  0.73613539  0.00804179  0.14667893    -0.21700
C1495       C  0.76401356  0.96329595  0.34969993    -0.21700
C1496       C  0.72928038  0.96471841  0.34872496    -0.21700
C1497       C  0.85683546  0.98690698  0.23474590    -0.22800
C1498       C  0.85588469  0.98759240  0.26917023    -0.22800
C1499       C  0.64496206  0.00079301  0.23032618    -0.22800
C1500       C  0.64456152  0.00101170  0.26489166    -0.22800
C1501       C  0.81338103  0.98937873  0.18980571    -0.18100
C1502       C  0.68999261  0.99555406  0.18687012    -0.18100
C1503       C  0.68726211  0.98865589  0.30912469    -0.18100
C1504       C  0.81025978  0.98129233  0.31161271    -0.18100
H1505       H  0.78754193  0.01347756  0.12712773     0.14800
H1506       H  0.72114439  0.01637946  0.12546237     0.14800
H1507       H  0.77904859  0.95362742  0.37031105     0.14800
H1508       H  0.71231739  0.95669432  0.36861932     0.14800
H1509       H  0.87963428  0.98776576  0.21964192     0.13000
H1510       H  0.87775063  0.98848523  0.28548545     0.13000
H1511       H  0.62326083  0.00506890  0.21431689     0.13000
H1512       H  0.62241699  0.00490081  0.28046791     0.13000
H1513       H  0.75008597  0.97757917  0.22111771     0.26300
H1514       H  0.75033481  0.00083793  0.27856501     0.26300
N1515       N  0.74933134  0.20278031  0.49881034    -0.36500
N1516       N  0.80122911  0.25442944  0.50056607    -0.57000
N1517       N  0.74951987  0.30453007  0.51435749    -0.36500
N1518       N  0.69742084  0.25307744  0.51588397    -0.57000
C1519       C  0.77730156  0.18305513  0.49807325     0.27100
C1520       C  0.72248641  0.18249988  0.50504863     0.27100
C1521       C  0.77780143  0.32262979  0.52058243     0.27100
C1522       C  0.72311129  0.32188304  0.52729525     0.27100
C1523       C  0.82102771  0.22816449  0.49161845     0.35700
C1524       C  0.82070116  0.28235003  0.49838228     0.35700
C1525       C  0.67756437  0.22670023  0.50728680     0.35700
C1526       C  0.67777124  0.28091628  0.51389366     0.35700
C1527       C  0.76790730  0.14973863  0.50302960    -0.21700
C1528       C  0.73339072  0.14936094  0.50718424    -0.21700
C1529       C  0.76931948  0.35166664  0.53811453    -0.21700
C1530       C  0.73471867  0.35120699  0.54230327    -0.21700
C1531       C  0.85340829  0.23940059  0.48415451    -0.22800
C1532       C  0.85312549  0.27375038  0.48810500    -0.22800
C1533       C  0.64496788  0.23771324  0.50063849    -0.22800
C1534       C  0.64522581  0.27211942  0.50432507    -0.22800
C1535       C  0.81105026  0.19393226  0.49235128    -0.18100
C1536       C  0.68815493  0.19266214  0.50650698    -0.18100
C1537       C  0.68867890  0.31392308  0.52195089    -0.18100
C1538       C  0.81054621  0.31503277  0.50834132    -0.18100
H1539       H  0.78417904  0.12782887  0.50328596     0.14800
H1540       H  0.71806894  0.12708192  0.51112548     0.14800
H1541       H  0.78619151  0.37158347  0.54617405     0.14800
H1542       H  0.71967201  0.37069247  0.55410049     0.14800
H1543       H  0.87507103  0.22436996  0.47693272     0.13000
H1544       H  0.87462552  0.29033899  0.48471108     0.13000
H1545       H  0.62336684  0.22262444  0.49334771     0.13000
H1546       H  0.62385076  0.28867000  0.50041946     0.13000
H1547       H  0.74805246  0.22805076  0.49243757     0.26300
H1548       H  0.74771567  0.28440241  0.49776917     0.26300
C1549       C  0.85915733  0.34038323  0.02352639    -0.05600
C1550       C  0.83649092  0.34217219  0.50864073     0.00300
C1551       C  0.83822903  0.36709658  0.48315994    -0.08300
C1552       C  0.86358910  0.39184584  0.48527620    -0.05700
C1553       C  0.88806816  0.39118271  0.51082606     0.00300
C1554       C  0.88425392  0.36517450  0.02733350    -0.08200
C1555       C  0.90593694  0.36531906  0.05877326     0.62200
H1556       H  0.85547957  0.32135658  0.04276708     0.13000
H1557       H  0.86532032  0.41130490  0.46619102     0.12900
C1558       C  0.81462923  0.36647402  0.45301530     0.62400
F1559       F  0.89415763  0.34265921  0.08259129    -0.22700
F1560       F  0.90560960  0.39699580  0.07300265    -0.20100
F1561       F  0.94394068  0.35711149  0.55185290    -0.19700
F1562       F  0.78742177  0.36747133  0.94516832    -0.19800
F1563       F  0.81864253  0.33641437  0.43591481    -0.20100
F1564       F  0.82134515  0.39255323  0.43076604    -0.22800
C1565       C  0.87322862  0.12542610  0.46492213    -0.05600
C1566       C  0.88889967  0.11757664  0.49568650     0.00300
C1567       C  0.87326157  0.12732707  0.02144417    -0.08300
C1568       C  0.84927654  0.15324876  0.01826025    -0.05700
C1569       C  0.83824716  0.16787281  0.49188349     0.00300
C1570       C  0.84802429  0.15042539  0.46240497    -0.08200
C1571       C  0.83215257  0.15844506  0.42855586     0.62200
H1572       H  0.88099252  0.11196875  0.44271867     0.12900
H1573       H  0.83908990  0.16539512  0.04048444     0.12900
C1574       C  0.88438426  0.11571858  0.05594250     0.62400
F1575       F  0.83819611  0.19178030  0.42039297    -0.22700
F1576       F  0.80269925  0.15295221  0.92037495    -0.20100
F1577       F  0.84529966  0.13856825  0.40306824    -0.19700
F1578       F  0.91920155  0.11814513  0.05857677    -0.19800
F1579       F  0.92071639  0.10743395  0.55996673    -0.20100
F1580       F  0.87009524  0.13480561  0.08142641    -0.22800
C1581       C  0.61029053  0.36851135  0.53525983    -0.05600
C1582       C  0.61466263  0.39297921  0.51008866     0.00300
C1583       C  0.64321121  0.39483834  0.97430161    -0.08300
C1584       C  0.66592665  0.36761720  0.97313437    -0.05700
C1585       C  0.66381345  0.34223392  0.52093007     0.00300
C1586       C  0.63519182  0.34438072  0.54237219    -0.08200
C1587       C  0.62982495  0.32251274  0.57325727     0.62200
H1588       H  0.58759675  0.36900918  0.55057326     0.12900
H1589       H  0.68580296  0.36695573  0.95432025     0.12900
C1590       C  0.64886977  0.42460665  0.95082947     0.62400
F1591       F  0.64128202  0.34020051  0.08223993    -0.22700
F1592       F  0.66870982  0.29932050  0.05560506    -0.20100
F1593       F  0.60368953  0.30013551  0.56726576    -0.19700
F1594       F  0.65588863  0.45321132  0.96939695    -0.19800
F1595       F  0.62365021  0.42137904  0.44182164    -0.20100
F1596       F  0.67878002  0.40897098  0.44249366    -0.22800
C1597       C  0.62777858  0.12137975  0.52990671    -0.05600
C1598       C  0.61439768  0.11316825  0.49826537     0.00300
C1599       C  0.61714429  0.13508004  0.96189343    -0.08300
C1600       C  0.64327276  0.15906221  0.96289311    -0.05700
C1601       C  0.66190467  0.16579942  0.50492310     0.00300
C1602       C  0.65038831  0.14852272  0.53397701    -0.08200
C1603       C  0.66149338  0.15915976  0.56897351     0.62200
H1604       H  0.61981954  0.10679677  0.55152145     0.12900
H1605       H  0.65017105  0.17306209  0.94047595     0.12900
C1606       C  0.59748278  0.12988224  0.92974803     0.62400
F1607       F  0.66004095  0.19281941  0.06241119    -0.22700
F1608       F  0.70102054  0.15381681  0.05677597    -0.20100
F1609       F  0.64430499  0.14160080  0.59384339    -0.19700
F1610       F  0.56346628  0.13549843  0.93561356    -0.19800
F1611       F  0.61154768  0.09163031  0.42718979    -0.20100
F1612       F  0.62458841  0.14405195  0.41063358    -0.22800
C1613       C  0.83264195  0.50312015  0.36350875    -0.05600
C1614       C  0.83529165  0.98140572  0.33981748     0.00300
C1615       C  0.86046093  0.95635748  0.34430371    -0.08300
C1616       C  0.88551957  0.96135182  0.36908448    -0.05700
C1617       C  0.88220331  0.48392638  0.39423683     0.00300
C1618       C  0.85550523  0.50737876  0.39031589    -0.08200
C1619       C  0.85212964  0.53752984  0.41340945     0.62200
H1620       H  0.81291177  0.52154390  0.35921023     0.12900
H1621       H  0.90560418  0.94295303  0.37174184     0.12900
C1622       C  0.86141037  0.92358046  0.32469445     0.62400
F1623       F  0.82886916  0.06368566  0.40309718    -0.22700
F1624       F  0.88308271  0.05732225  0.41781691    -0.20100
F1625       F  0.84435013  0.52695573  0.44570411    -0.19700
F1626       F  0.89072454  0.92232360  0.30571114    -0.19800
F1627       F  0.83176563  0.41055552  0.31067183    -0.20100
F1628       F  0.86480325  0.39128279  0.35164534    -0.22800
C1629       C  0.63380127  0.51131652  0.38342093    -0.05600
C1630       C  0.60738740  0.48776990  0.38436641     0.00300
C1631       C  0.60880429  0.96597923  0.36023901    -0.08300
C1632       C  0.63536623  0.96536161  0.33651392    -0.05700
C1633       C  0.66092647  0.99001304  0.33624167     0.00300
C1634       C  0.66012536  0.50953702  0.35968191    -0.08200
C1635       C  0.68682360  0.53713917  0.35849592     0.62200
H1636       H  0.63319274  0.53163499  0.40123511     0.12900
H1637       H  0.63597210  0.94607168  0.31725818     0.12900
C1638       C  0.58101172  0.93952064  0.35841811     0.62400
F1639       F  0.67740716  0.56473007  0.37736070    -0.22700
F1640       F  0.67892749  0.06845751  0.38490123    -0.20100
F1641       F  0.71707428  0.52526555  0.37116869    -0.19700
F1642       F  0.55114627  0.95434884  0.34805071    -0.19800
F1643       F  0.57411889  0.42042375  0.38922018    -0.20100
F1644       F  0.58888672  0.91413524  0.33586020    -0.22800
C1645       C  0.63253109  0.97417213  0.11277237    -0.05600
C1646       C  0.61482129  0.00449677  0.10902564     0.00300
C1647       C  0.64356584  0.51825613  0.11406130    -0.08300
C1648       C  0.66623113  0.51213717  0.14061946    -0.05700
C1649       C  0.66467585  0.99794535  0.15915967     0.00300
C1650       C  0.65734667  0.97022765  0.13781211    -0.08200
C1651       C  0.67539810  0.93663939  0.14158984     0.62200
H1652       H  0.62627939  0.95339647  0.09623892     0.12900
H1653       H  0.68721041  0.52918469  0.14495309     0.12900
C1654       C  0.65014840  0.54755977  0.09061006     0.62400
F1655       F  0.63059615  0.43158597  0.20792712    -0.22700
F1656       F  0.66440601  0.40900004  0.16825383    -0.20100
F1657       F  0.66209906  0.91232821  0.12039714    -0.19700
F1658       F  0.62039500  0.56395853  0.08365208    -0.19800
F1659       F  0.60777628  0.07552966  0.09142388    -0.20100
F1660       F  0.61988969  0.09109169  0.14415535    -0.22800
C1661       C  0.87955249  0.46483084  0.12209802    -0.05600
C1662       C  0.89194508  0.00152085  0.11590822     0.00300
C1663       C  0.88702218  0.02593213  0.14143114    -0.08300
C1664       C  0.86009160  0.02166964  0.16399299    -0.05700
C1665       C  0.84041265  0.99233834  0.16394128     0.00300
C1666       C  0.85605184  0.45650493  0.14756948    -0.08200
C1667       C  0.85088499  0.42003105  0.15783125     0.62200
H1668       H  0.89272031  0.44509160  0.10879397     0.12900
H1669       H  0.85474690  0.04070247  0.18279133     0.12900
C1670       C  0.90940642  0.05659540  0.14449358     0.62400
F1671       F  0.86818163  0.39817758  0.13684516    -0.22700
F1672       F  0.79402521  0.93783245  0.13698607    -0.20100
F1673       F  0.86260197  0.41561036  0.19031524    -0.19700
F1674       F  0.91005282  0.07290628  0.11397829    -0.19800
F1675       F  0.89269662  0.57310547  0.16037213    -0.20100
F1676       F  0.89767201  0.07894403  0.16857820    -0.22800
C1677       C  0.53506657  0.11664946  0.36810933    -0.05600
C1678       C  0.50308555  0.10505141  0.37828437     0.00300
C1679       C  0.97206651  0.11671269  0.36425557    -0.08300
C1680       C  0.97404579  0.14151564  0.33897240    -0.05700
C1681       C  0.50928103  0.15636232  0.32904928     0.00300
C1682       C  0.53872591  0.14250038  0.34393099    -0.08200
C1683       C  0.57367272  0.15610073  0.33561212     0.62200
H1684       H  0.55717134  0.10592344  0.38005628     0.12900
H1685       H  0.95116915  0.15255912  0.32883201     0.12900
C1686       C  0.93797732  0.10509586  0.37729504     0.62400
F1687       F  0.59885929  0.13726850  0.35067025    -0.22700
F1688       F  0.57623966  0.18897739  0.34678087    -0.20100
F1689       F  0.57940388  0.15530834  0.30133053    -0.19700
F1690       F  0.93555462  0.11237257  0.41122615    -0.19800
F1691       F  0.93487326  0.07071423  0.37264627    -0.20100
F1692       F  0.91143823  0.12076524  0.36084944    -0.22800
C1693       C  0.52195921  0.33011848  0.37564844    -0.05600
C1694       C  0.50040571  0.33224416  0.34761544     0.00300
C1695       C  0.97627492  0.35199385  0.34941070    -0.08300
C1696       C  0.97736004  0.37748503  0.37392571    -0.05700
C1697       C  0.49783509  0.38133776  0.39972046     0.00300
C1698       C  0.51986475  0.35311068  0.40272149    -0.08200
C1699       C  0.54120996  0.34702065  0.43397873     0.62200
H1700       H  0.54036884  0.30994618  0.37622104     0.12900
H1701       H  0.95743476  0.39625471  0.37440380     0.12900
C1702       C  0.94503699  0.35035983  0.32739049     0.62400
F1703       F  0.56046804  0.31804072  0.43125457    -0.22700
F1704       F  0.52041798  0.34308617  0.46176985    -0.20100
F1705       F  0.56291885  0.37381681  0.43917672    -0.19700
F1706       F  0.94292707  0.32127193  0.30844085    -0.19800
F1707       F  0.94475173  0.37780724  0.30598425    -0.20100
F1708       F  0.91668426  0.35129573  0.34775945    -0.22800
C1709       C  0.97295713  0.38481381  0.13345684    -0.05600
C1710       C  0.50356006  0.39799774  0.12135831     0.00300
C1711       C  0.52768225  0.37166336  0.12267013    -0.08300
C1712       C  0.52636878  0.34841443  0.14929504    -0.05700
C1713       C  0.50103177  0.34960256  0.17391051     0.00300
C1714       C  0.97296206  0.36040468  0.15932553    -0.08200
C1715       C  0.93876657  0.34789371  0.17164555     0.62200
H1716       H  0.94911992  0.39263477  0.12252818     0.12900
H1717       H  0.54445500  0.32795320  0.15041862     0.12900
C1718       C  0.55436217  0.36737864  0.09571860     0.62400
F1719       F  0.91961673  0.37519556  0.18166386    -0.22700
F1720       F  0.94075419  0.32607273  0.19868783    -0.20100
F1721       F  0.92228752  0.33159921  0.14567040    -0.19700
F1722       F  0.57062366  0.39770465  0.08979730    -0.19800
F1723       F  0.53916738  0.35610940  0.06647227    -0.20100
F1724       F  0.57851738  0.34403345  0.10509410    -0.22800
C1725       C  0.52227974  0.17704232  0.12847551    -0.05600
C1726       C  0.49907943  0.17513420  0.15533410     0.00300
C1727       C  0.97252121  0.15280182  0.14764453    -0.08300
C1728       C  0.97363489  0.12778218  0.12269226    -0.05700
C1729       C  0.49943059  0.12556325  0.10370330     0.00300
C1730       C  0.52213616  0.15328612  0.10194316    -0.08200
C1731       C  0.54636737  0.15753244  0.07257333     0.62200
H1732       H  0.54060741  0.19734923  0.12854590     0.12900
H1733       H  0.95297222  0.11044893  0.12063693     0.12900
C1734       C  0.94078562  0.15526567  0.16910774     0.62400
F1735       F  0.56920151  0.18346018  0.07787791    -0.22700
F1736       F  0.52824396  0.16481749  0.04371129    -0.20100
F1737       F  0.56451160  0.12822237  0.06778236    -0.19700
F1738       F  0.93759550  0.18627096  0.18460760    -0.19800
F1739       F  0.94145546  0.13039457  0.19345225    -0.20100
F1740       F  0.91239545  0.15074071  0.14921901    -0.22800
N1741       N  0.49811633  0.25757522  0.69870245    -0.36500
N1742       N  0.50228414  0.30354823  0.75595972    -0.57000
N1743       N  0.49760562  0.24651091  0.80205888    -0.36500
N1744       N  0.49024513  0.20056537  0.74492221    -0.57000
C1745       C  0.49603384  0.28742680  0.68218767     0.27100
C1746       C  0.49077299  0.23277784  0.67639093     0.27100
C1747       C  0.49262874  0.27232930  0.82380853     0.27100
C1748       C  0.48767126  0.21786192  0.81781603     0.27100
C1749       C  0.50724156  0.32617525  0.73089479     0.35700
C1750       C  0.50765773  0.31997302  0.78532809     0.35700
C1751       C  0.49468018  0.18355312  0.71571420     0.35700
C1752       C  0.49353102  0.17769786  0.77002706     0.35700
C1753       C  0.48833630  0.28131263  0.64863967    -0.21700
C1754       C  0.48444098  0.24706837  0.64514428    -0.21700
C1755       C  0.47945426  0.25984473  0.85374326    -0.21700
C1756       C  0.47660268  0.22547165  0.85004913    -0.21700
C1757       C  0.51577100  0.35720983  0.74449233    -0.22800
C1758       C  0.51629513  0.35322423  0.77884893    -0.22800
C1759       C  0.50041627  0.14973110  0.72245956    -0.22800
C1760       C  0.49921378  0.14597273  0.75674191    -0.22800
C1761       C  0.50155029  0.32004327  0.69612731    -0.18100
C1762       C  0.49142725  0.19750400  0.68290399    -0.18100
C1763       C  0.49091503  0.18480308  0.80484147    -0.18100
C1764       C  0.50057582  0.30671025  0.81783456    -0.18100
H1765       H  0.48549094  0.29963853  0.62865042     0.14800
H1766       H  0.47799185  0.23420885  0.62201191     0.14800
H1767       H  0.47280996  0.27398118  0.87608088     0.14800
H1768       H  0.46749128  0.20803692  0.86898417     0.14800
H1769       H  0.52041075  0.38056213  0.73118731     0.13000
H1770       H  0.52124199  0.37292436  0.79701648     0.13000
H1771       H  0.50490339  0.12967979  0.70458323     0.13000
H1772       H  0.50259256  0.12258679  0.77035369     0.13000
H1773       H  0.50680371  0.25407538  0.72301466     0.26300
H1774       H  0.51067241  0.24775362  0.77937859     0.26300
O1775       O  0.49988349  0.10226201  0.54693029    -0.86300
O1776       O  0.50032539  0.41354722  0.56561122    -0.86500
O1777       O  0.94729579  0.00691278  0.59891971    -0.88200
O1778       O  0.55699942  0.00474746  0.59366949    -0.86900
O1779       O  0.59755694  0.50537852  0.55267643    -0.86500
O1780       O  0.90729799  0.50419965  0.55917481    -0.87900
O1781       O  0.50120134  0.45784941  0.60286197    -0.86400
O1782       O  0.49983674  0.06522940  0.59134612    -0.86000
Zr1783     Zr  0.50175177  0.50984365  0.56974253     2.84300
O1784       O  0.53540929  0.47299520  0.53763747    -1.07900
O1785       O  0.96656554  0.04061213  0.53239486    -1.08700
C1786       C  0.49920795  0.09526117  0.57873692     1.06800
C1787       C  0.50074087  0.42609554  0.59571860     1.06700
C1788       C  0.91597479  0.00395850  0.59022010     1.09700
C1789       C  0.58774584  0.00051753  0.58325013     1.07500
H1790       H  0.95502084  0.45879571  0.55367468     0.33000
O1791       O  0.96824500  0.47190996  0.53795898    -1.28900
H1792       H  0.55004833  0.05340376  0.54413185     0.32700
O1793       O  0.53547965  0.03887012  0.53111541    -1.30600
O1794       O  0.49943924  0.40282543  0.95322868    -0.86300
O1795       O  0.49806109  0.09292747  0.93708983    -0.87800
O1796       O  0.90395959  0.44746354  0.00144873    -0.86400
O1797       O  0.59752673  0.45012325  0.99743878    -0.86500
O1798       O  0.59429964  0.05888140  0.99464731    -0.86200
O1799       O  0.90293179  0.05482671  0.99794967    -0.86000
O1800       O  0.94153955  0.49263777  0.90571695    -0.86300
O1801       O  0.55094582  0.49655177  0.90286905    -0.85800
O1802       O  0.90139589  0.49784240  0.94727452    -0.86900
O1803       O  0.59345231  0.50199386  0.94184732    -0.86000
O1804       O  0.94528209  0.40695745  0.00582364    -0.86400
O1805       O  0.94367768  0.09558755  0.99050186    -0.86200
O1806       O  0.55274613  0.09921679  0.99165866    -0.85800
O1807       O  0.55782372  0.40841064  0.00337152    -0.86200
O1808       O  0.49682332  0.44026850  0.90924404    -0.86500
O1809       O  0.49630684  0.04840276  0.90017878    -0.87800
Zr1810     Zr  0.50160078  0.43468754  0.00580121     2.83100
Zr1811     Zr  0.49807619  0.07097417  0.99531879     2.83500
Zr1812     Zr  0.93058867  0.50329045  0.00110415     2.84100
Zr1813     Zr  0.56837548  0.50373438  0.99830378     2.83400
Zr1814     Zr  0.49686856  0.49762260  0.93265476     2.84200
O1815       O  0.53119913  0.03439438  0.96300806    -1.08400
O1816       O  0.96463428  0.46618188  0.97001214    -1.07900
C1817       C  0.49815522  0.41002990  0.92153071     1.06700
C1818       C  0.49719762  0.08021924  0.90701260     1.09400
C1819       C  0.91417909  0.41655227  0.00346312     1.06900
C1820       C  0.58862822  0.41899953  0.99941933     1.07300
C1821       C  0.58395347  0.08963506  0.99213051     1.06900
C1822       C  0.91261733  0.08564174  0.99356229     1.06400
C1823       C  0.91058578  0.49392615  0.91629964     1.06800
C1824       C  0.58242774  0.49861186  0.91134637     1.06300
H1825       H  0.94980517  0.04358202  0.94764427     0.33000
O1826       O  0.96443285  0.03127316  0.96274295    -1.29500
H1827       H  0.54706983  0.45235114  0.95401611     0.33000
O1828       O  0.53335656  0.46701017  0.96779846    -1.30900
N1829       N  0.75109075  0.98002297  0.69949251    -0.36500
N1830       N  0.80129829  0.97787379  0.75364386    -0.57000
N1831       N  0.74677464  0.98037497  0.80256133    -0.36500
N1832       N  0.69659427  0.98216952  0.74873012    -0.57000
C1833       C  0.77974700  0.98643508  0.68171913     0.27100
C1834       C  0.72455845  0.98696304  0.67895258     0.27100
C1835       C  0.77293400  0.97230912  0.82303822     0.27100
C1836       C  0.71801566  0.97594477  0.82059015     0.27100
C1837       C  0.82300015  0.97960902  0.72737864     0.35700
C1838       C  0.82038515  0.97812614  0.78187172     0.35700
C1839       C  0.67725997  0.98321852  0.72065549     0.35700
C1840       C  0.67530245  0.98536025  0.77524463     0.35700
C1841       C  0.77120185  0.99712365  0.64955693    -0.21700
C1842       C  0.73655185  0.99749578  0.64784509    -0.21700
C1843       C  0.76061316  0.96247930  0.85425953    -0.21700
C1844       C  0.72597350  0.96482788  0.85273748    -0.21700
C1845       C  0.85607967  0.98040498  0.73902277    -0.22800
C1846       C  0.85438968  0.98004751  0.77347814    -0.22800
C1847       C  0.64343961  0.98637268  0.72950294    -0.22800
C1848       C  0.64229739  0.98865461  0.76388284    -0.22800
C1849       C  0.81362106  0.98291580  0.69314223    -0.18100
C1850       C  0.68966863  0.98447631  0.68712631    -0.18100
C1851       C  0.68480023  0.98342334  0.80960345    -0.18100
C1852       C  0.80775753  0.97508174  0.81510329    -0.18100
H1853       H  0.78819641  0.00426367  0.62936379     0.14800
H1854       H  0.72183710  0.00500978  0.62614041     0.14800
H1855       H  0.77512183  0.95461080  0.87598414     0.14800
H1856       H  0.70859387  0.95914744  0.87307715     0.14800
H1857       H  0.87912354  0.98190355  0.72433012     0.13000
H1858       H  0.87586206  0.98083157  0.79032714     0.13000
H1859       H  0.62175352  0.98794710  0.71298911     0.13000
H1860       H  0.61950752  0.99189654  0.77864429     0.13000
H1861       H  0.74975388  0.96895031  0.72315225     0.26300
H1862       H  0.74849981  0.99210998  0.77922705     0.26300
N1863       N  0.74957424  0.20086302  0.99044652    -0.36500
N1864       N  0.80270183  0.25170303  0.98902178    -0.57000
N1865       N  0.75099726  0.30356882  0.99096219    -0.36500
N1866       N  0.69792889  0.25317043  0.99112085    -0.57000
C1867       C  0.77686976  0.18037999  0.98821070     0.27100
C1868       C  0.72158984  0.18115626  0.99078260     0.27100
C1869       C  0.77878035  0.32107220  0.00040714     0.27100
C1870       C  0.72387871  0.32208449  0.00029084     0.27100
C1871       C  0.82248794  0.22441549  0.98440564     0.35700
C1872       C  0.82290891  0.27898773  0.98623632     0.35700
C1873       C  0.67708605  0.22630748  0.98974620     0.35700
C1874       C  0.67835641  0.28079094  0.98797435     0.35700
C1875       C  0.76603668  0.14712333  0.98751906    -0.21700
C1876       C  0.73129227  0.14761908  0.98885618    -0.21700
C1877       C  0.76920017  0.35081188  0.01601947    -0.21700
C1878       C  0.73451011  0.35148656  0.01587250    -0.21700
C1879       C  0.85565525  0.23448977  0.97872073    -0.22800
C1880       C  0.85584996  0.26910425  0.97954821    -0.22800
C1881       C  0.64387285  0.23699985  0.98587183    -0.22800
C1882       C  0.64477523  0.27148181  0.98401867    -0.22800
C1883       C  0.81130278  0.19052259  0.98582197    -0.18100
C1884       C  0.68742605  0.19226009  0.99194193    -0.18100
C1885       C  0.68974036  0.31396878  0.99389637    -0.18100
C1886       C  0.81252698  0.31233340  0.99287788    -0.18100
H1887       H  0.78150608  0.12473194  0.98549544     0.14800
H1888       H  0.71502632  0.12567285  0.98815802     0.14800
H1889       H  0.78554750  0.37029558  0.02596127     0.14800
H1890       H  0.71887406  0.37145064  0.02597874     0.14800
H1891       H  0.87744505  0.21857393  0.97436171     0.13000
H1892       H  0.87784821  0.28509152  0.97644063     0.13000
H1893       H  0.62124031  0.22168606  0.98458350     0.13000
H1894       H  0.62297821  0.28779253  0.98168125     0.13000
H1895       H  0.75001446  0.22673861  0.99239105     0.26300
H1896       H  0.75058883  0.28252774  0.97535299     0.26300
C1897       C  0.86034912  0.34198132  0.53467236    -0.05600
C1898       C  0.83859115  0.33925551  0.99488544     0.00300
C1899       C  0.84244473  0.36376689  0.96924751    -0.08300
C1900       C  0.86709570  0.38902058  0.97335375    -0.05700
C1901       C  0.88815147  0.38985006  0.00177687     0.00300
C1902       C  0.88666672  0.36576538  0.53592103    -0.08200
C1903       C  0.91210561  0.36426678  0.56440111     0.62200
H1904       H  0.85845983  0.32246953  0.55367271     0.13000
H1905       H  0.87059531  0.40802671  0.95405163     0.12900
C1906       C  0.82117626  0.36262776  0.93742295     0.62400
F1907       F  0.90399374  0.33962643  0.58778919    -0.22700
F1908       F  0.91272702  0.39492905  0.58072412    -0.20100
F1909       F  0.93883410  0.35668942  0.05069137    -0.19700
F1910       F  0.78137239  0.36939955  0.46342137    -0.19800
F1911       F  0.82496400  0.33164301  0.92198205    -0.20100
F1912       F  0.83066379  0.38733287  0.91465824    -0.22800
C1913       C  0.87411296  0.12217530  0.96044892    -0.05600
C1914       C  0.88606359  0.11186393  0.99202719     0.00300
C1915       C  0.87946379  0.13578854  0.52498606    -0.08300
C1916       C  0.85404119  0.16035874  0.52250093    -0.05700
C1917       C  0.83750981  0.16363424  0.98663690     0.00300
C1918       C  0.84979689  0.14783779  0.95714268    -0.08200
C1919       C  0.83724140  0.15803415  0.92249338     0.62200
H1920       H  0.88384867  0.10991701  0.93834241     0.12900
H1921       H  0.84628706  0.17395542  0.54490319     0.12900
C1922       C  0.89450166  0.13036431  0.55964253     0.62400
F1923       F  0.84423896  0.19166978  0.91676951    -0.22700
F1924       F  0.79761197  0.15300678  0.42993382    -0.20100
F1925       F  0.85254153  0.13947948  0.89722413    -0.19700
F1926       F  0.90673924  0.16068242  0.57178544    -0.19800
F1927       F  0.87452329  0.08257101  0.06031668    -0.20100
F1928       F  0.86929465  0.11898859  0.58103811    -0.22800
C1929       C  0.61481232  0.36709115  0.02123044    -0.05600
C1930       C  0.61588578  0.39339383  0.99770249     0.00300
C1931       C  0.64456487  0.39239247  0.49003762    -0.08300
C1932       C  0.66814991  0.36640343  0.49542438    -0.05700
C1933       C  0.66446911  0.34140919  0.99679240     0.00300
C1934       C  0.64015484  0.34255624  0.02289181    -0.08200
C1935       C  0.64072873  0.32006382  0.05387005     0.62200
H1936       H  0.59506589  0.36686027  0.03991989     0.12900
H1937       H  0.69040757  0.36458134  0.47956131     0.12900
C1938       C  0.65155504  0.41818713  0.46249931     0.62400
F1939       F  0.62107777  0.34266944  0.60034167    -0.22700
F1940       F  0.65845589  0.30468117  0.58217889    -0.20100
F1941       F  0.61191320  0.30026671  0.05449373    -0.19700
F1942       F  0.65904725  0.44904740  0.47679135    -0.19800
F1943       F  0.62039701  0.42993058  0.93156123    -0.20100
F1944       F  0.67592075  0.41946137  0.92921108    -0.22800
C1945       C  0.62749864  0.12312246  0.02103893    -0.05600
C1946       C  0.61004340  0.11614799  0.99120831     0.00300
C1947       C  0.62463850  0.13165867  0.46958601    -0.08300
C1948       C  0.64922816  0.15700762  0.47323331    -0.05700
C1949       C  0.66049242  0.16615861  0.99283335     0.00300
C1950       C  0.65164163  0.14902102  0.02281044    -0.08200
C1951       C  0.66647592  0.15908157  0.05657759     0.62200
H1952       H  0.62138052  0.10868947  0.04319271     0.12900
H1953       H  0.65814943  0.17094606  0.45149216     0.12900
C1954       C  0.60887196  0.12531537  0.43553266     0.62400
F1955       F  0.65508601  0.19310245  0.57352884    -0.22700
F1956       F  0.69573148  0.15337834  0.57294842    -0.20100
F1957       F  0.65245494  0.14074612  0.08281229    -0.19700
F1958       F  0.57509494  0.13429771  0.43663155    -0.19800
F1959       F  0.60213516  0.09732358  0.91833273    -0.20100
F1960       F  0.60795240  0.15198344  0.90490324    -0.22800
C1961       C  0.83362543  0.50997186  0.86101204    -0.05600
C1962       C  0.83238101  0.97557623  0.84355596     0.00300
C1963       C  0.85540786  0.94904365  0.85019358    -0.08300
C1964       C  0.88126108  0.95432632  0.87405605    -0.05700
C1965       C  0.88351710  0.49029274  0.89078616     0.00300
C1966       C  0.85761141  0.51461738  0.88662871    -0.08200
C1967       C  0.85636658  0.54628478  0.90780121     0.62200
H1968       H  0.81415194  0.52871367  0.85686767     0.12900
H1969       H  0.89987712  0.93474660  0.87833649     0.12900
C1970       C  0.85378197  0.91513465  0.83266379     0.62400
F1971       F  0.83379318  0.06399645  0.89836688    -0.22700
F1972       F  0.88844252  0.05552556  0.91015880    -0.20100
F1973       F  0.84750591  0.53839417  0.94053994    -0.19700
F1974       F  0.88013522  0.91278270  0.80988223    -0.19800
F1975       F  0.83445508  0.41954546  0.80334077    -0.20100
F1976       F  0.86298463  0.39751620  0.84635309    -0.22800
C1977       C  0.63446104  0.52106438  0.88459767    -0.05600
C1978       C  0.60822313  0.49714130  0.88410565     0.00300
C1979       C  0.60572797  0.96638265  0.86110715    -0.08300
C1980       C  0.63265028  0.96339017  0.83815777    -0.05700
C1981       C  0.65809029  0.98793222  0.83580252     0.00300
C1982       C  0.66027264  0.52122570  0.86010604    -0.08200
C1983       C  0.68580371  0.54988223  0.85925852     0.62200
H1984       H  0.63412248  0.54021956  0.90398638     0.12900
H1985       H  0.63344017  0.94243685  0.82073180     0.12900
C1986       C  0.57664066  0.94138152  0.85927968     0.62400
F1987       F  0.71780235  0.53794050  0.86647760    -0.22700
F1988       F  0.66655318  0.07485713  0.86113195    -0.20100
F1989       F  0.68601957  0.56452834  0.82763360    -0.19700
F1990       F  0.54778861  0.95757012  0.84818101    -0.19800
F1991       F  0.57301206  0.43083676  0.88458290    -0.20100
F1992       F  0.58341905  0.91515753  0.83732033    -0.22800
C1993       C  0.63376194  0.96770666  0.61017976    -0.05600
C1994       C  0.61450032  0.99740746  0.60911139     0.00300
C1995       C  0.62527444  0.53478134  0.62880932    -0.08300
C1996       C  0.64999945  0.53059072  0.65378145    -0.05700
C1997       C  0.66453764  0.98822013  0.65912520     0.00300
C1998       C  0.65797705  0.96209732  0.63563011    -0.08200
C1999       C  0.67522634  0.92798753  0.63838408     0.62200
H2000       H  0.62866896  0.94834584  0.59166372     0.12900
H2001       H  0.65766443  0.55173755  0.66922245     0.12900
C2002       C  0.61081305  0.56930176  0.62186096     0.62400
F2003       F  0.66052404  0.41361421  0.62066485    -0.22700
F2004       F  0.66787838  0.42549937  0.67533267    -0.20100
F2005       F  0.66971334  0.91467427  0.67012459    -0.19700
F2006       F  0.57619510  0.56920367  0.62693377    -0.19800
F2007       F  0.59712931  0.06840533  0.60128368    -0.20100
F2008       F  0.61384139  0.07951400  0.65388355    -0.22800
C2009       C  0.87611377  0.47063881  0.61866823    -0.05600
C2010       C  0.89082462  0.99896799  0.61770980     0.00300
C2011       C  0.88529142  0.02292920  0.64360727    -0.08300
C2012       C  0.85913414  0.01729427  0.66698031    -0.05700
C2013       C  0.84122630  0.98689188  0.66771805     0.00300
C2014       C  0.85055515  0.46525539  0.64270106    -0.08200
C2015       C  0.83333629  0.43114484  0.64487033     0.62200
H2016       H  0.88270767  0.45089744  0.60105272     0.12900
H2017       H  0.85290229  0.03622910  0.68559840     0.12900
C2018       C  0.90666236  0.05428168  0.64666069     0.62400
F2019       F  0.85011829  0.40716540  0.62583189    -0.22700
F2020       F  0.84353208  0.91367143  0.68031424    -0.20100
F2021       F  0.83275616  0.42005928  0.67788981    -0.19700
F2022       F  0.90418380  0.07258192  0.61728476    -0.19800
F2023       F  0.93884535  0.55344371  0.64737251    -0.20100
F2024       F  0.89623185  0.07441120  0.67314212    -0.22800
C2025       C  0.52555370  0.12034582  0.86733174    -0.05600
C2026       C  0.49580076  0.10421772  0.87815783     0.00300
C2027       C  0.97357788  0.11531712  0.86186943    -0.08300
C2028       C  0.97684636  0.14145106  0.83811968    -0.05700
C2029       C  0.49328763  0.15621714  0.82931615     0.00300
C2030       C  0.52486482  0.14602545  0.84269187    -0.08200
C2031       C  0.55751416  0.16251828  0.83080984     0.62200
H2032       H  0.54932506  0.11261957  0.87824206     0.12900
H2033       H  0.95449915  0.15350591  0.82795577     0.12900
C2034       C  0.93895762  0.10328963  0.87267142     0.62400
F2035       F  0.58566380  0.14745092  0.84474073    -0.22700
F2036       F  0.55753279  0.19622477  0.83957072    -0.20100
F2037       F  0.56053568  0.15980632  0.79625070    -0.19700
F2038       F  0.93599699  0.10631449  0.90717306    -0.19800
F2039       F  0.93516084  0.06988195  0.86356518    -0.20100
F2040       F  0.91325198  0.12172228  0.85786733    -0.22800
C2041       C  0.52240012  0.33100594  0.87171900    -0.05600
C2042       C  0.49753832  0.33104543  0.84648830     0.00300
C2043       C  0.97490821  0.35393710  0.84793183    -0.08300
C2044       C  0.97656651  0.38004339  0.87181585    -0.05700
C2045       C  0.49800605  0.38142128  0.89721633     0.00300
C2046       C  0.52241922  0.35509963  0.89792069    -0.08200
C2047       C  0.54862090  0.35252731  0.92580889     0.62200
H2048       H  0.54183429  0.31182894  0.87065440     0.12900
H2049       H  0.95743582  0.39961603  0.87141267     0.12900
C2050       C  0.94377817  0.35259125  0.82565267     0.62400
F2051       F  0.57125862  0.32654274  0.92022385    -0.22700
F2052       F  0.53272024  0.34645096  0.95625723    -0.20100
F2053       F  0.56685218  0.38209799  0.92801839    -0.19700
F2054       F  0.91525687  0.35567537  0.84559897    -0.19800
F2055       F  0.94068551  0.32266117  0.80818212    -0.20100
F2056       F  0.94471485  0.37894718  0.80291206    -0.22800
C2057       C  0.97350305  0.39117430  0.63643276    -0.05600
C2058       C  0.50104928  0.40195756  0.62426369     0.00300
C2059       C  0.53157663  0.39211816  0.63996161    -0.08300
C2060       C  0.53097954  0.36505841  0.66299022    -0.05700
C2061       C  0.50041685  0.34972649  0.67277171     0.00300
C2062       C  0.97033693  0.36570684  0.66111395    -0.08200
C2063       C  0.93577892  0.35740788  0.67576198     0.62200
H2064       H  0.95133748  0.40447929  0.62773532     0.12900
H2065       H  0.55436909  0.35571612  0.67366444     0.12900
C2066       C  0.56436309  0.41066216  0.63272163     0.62400
F2067       F  0.91052622  0.37699308  0.66163493    -0.22700
F2068       F  0.93601457  0.36317440  0.71008145    -0.20100
F2069       F  0.92776784  0.32403782  0.66995061    -0.19700
F2070       F  0.55981265  0.44483358  0.63771029    -0.19800
F2071       F  0.57403714  0.40523687  0.59977366    -0.20100
F2072       F  0.59021399  0.40019792  0.65372974    -0.22800
C2073       C  0.51593727  0.17530647  0.62939253    -0.05600
C2074       C  0.48994378  0.17360591  0.65361844     0.00300
C2075       C  0.96993295  0.14872660  0.65113560    -0.08300
C2076       C  0.97331569  0.12373519  0.62652464    -0.05700
C2077       C  0.49623671  0.12364487  0.60294609     0.00300
C2078       C  0.51855354  0.15162122  0.60309037    -0.08200
C2079       C  0.54571086  0.15579697  0.57640694     0.62200
H2080       H  0.53442474  0.19535676  0.63143755     0.12900
H2081       H  0.95545826  0.10324697  0.62605778     0.12900
C2082       C  0.93894614  0.14708419  0.67366488     0.62400
F2083       F  0.56634174  0.18330126  0.58261377    -0.22700
F2084       F  0.53085981  0.16046002  0.54524983    -0.20100
F2085       F  0.56568029  0.12733862  0.57563602    -0.19700
F2086       F  0.93383218  0.17638998  0.69168587    -0.19800
F2087       F  0.94228272  0.12051854  0.69593124    -0.20100
F2088       F  0.91046978  0.14187185  0.65405762    -0.22800
N2089       N  0.50855228  0.75749976  0.19977266    -0.36500
N2090       N  0.50753773  0.80363629  0.25674666    -0.57000
N2091       N  0.50900649  0.74669322  0.30277655    -0.36500
N2092       N  0.50773851  0.70031529  0.24605104    -0.57000
C2093       C  0.50446908  0.78696677  0.18307198     0.27100
C2094       C  0.50354902  0.73221453  0.17744648     0.27100
C2095       C  0.49900794  0.77167159  0.32374696     0.27100
C2096       C  0.50111338  0.71718395  0.31795382     0.27100
C2097       C  0.51187501  0.82644583  0.23178319     0.35700
C2098       C  0.51118302  0.82037151  0.28616158     0.35700
C2099       C  0.51127145  0.68340906  0.21674202     0.35700
C2100       C  0.51356389  0.67790776  0.27104157     0.35700
C2101       C  0.49788231  0.78023265  0.14941187    -0.21700
C2102       C  0.49716978  0.74579850  0.14591585    -0.21700
C2103       C  0.48463790  0.75783093  0.35250091    -0.21700
C2104       C  0.48610328  0.72343453  0.34891138    -0.21700
C2105       C  0.51822393  0.85794072  0.24547906    -0.22800
C2106       C  0.51809202  0.85403792  0.27987663    -0.22800
C2107       C  0.51899620  0.64993283  0.22321370    -0.22800
C2108       C  0.52070553  0.64652313  0.25761734    -0.22800
C2109       C  0.50753483  0.81981526  0.19695279    -0.18100
C2110       C  0.50594198  0.69721706  0.18424896    -0.18100
C2111       C  0.50925368  0.68478098  0.30568535    -0.18100
C2112       C  0.50386977  0.80658839  0.31830788    -0.18100
H2113       H  0.49418634  0.79819894  0.12925033     0.14800
H2114       H  0.49273855  0.73232039  0.12265715     0.14800
H2115       H  0.47433144  0.77112134  0.37396855     0.14800
H2116       H  0.47727162  0.70508713  0.36710770     0.14800
H2117       H  0.52193219  0.88144762  0.23215552     0.13000
H2118       H  0.52149321  0.87396087  0.29814956     0.13000
H2119       H  0.52279675  0.62997305  0.20505702     0.13000
H2120       H  0.52576722  0.62342134  0.27118917     0.13000
H2121       H  0.51678628  0.75483523  0.22433098     0.26300
H2122       H  0.52390491  0.74943578  0.28132036     0.26300
O2123       O  0.50141266  0.60249933  0.04881740    -0.86300
O2124       O  0.50163502  0.91212838  0.06521038    -0.86500
O2125       O  0.94475282  0.50679703  0.09684607    -0.88200
O2126       O  0.55838285  0.50363950  0.09455144    -0.86900
O2127       O  0.59660442  0.00403984  0.05246890    -0.86500
O2128       O  0.90682426  0.00211689  0.05831296    -0.87900
O2129       O  0.50294331  0.95634194  0.10256520    -0.86400
O2130       O  0.50259009  0.56463518  0.09268337    -0.86000
Zr2131     Zr  0.50076650  0.00901866  0.06993437     2.84300
O2132       O  0.53428191  0.97282583  0.03731414    -1.07900
O2133       O  0.96538104  0.54027854  0.03147697    -1.08700
C2134       C  0.50237110  0.59491620  0.08049428     1.06800
C2135       C  0.50287313  0.92455091  0.09528471     1.06700
C2136       C  0.91348615  0.50389732  0.08753425     1.09700
C2137       C  0.58918681  0.50142086  0.08368623     1.07500
H2138       H  0.95368620  0.95704940  0.05348245     0.33000
O2139       O  0.96735081  0.97000380  0.03797385    -1.28900
H2140       H  0.54994495  0.55418170  0.04473058     0.32700
O2141       O  0.53539634  0.53933106  0.03202219    -1.30600
O2142       O  0.49699161  0.90136735  0.45493155    -0.86300
O2143       O  0.50416859  0.59502077  0.43943997    -0.87800
O2144       O  0.90312998  0.94915182  0.50579346    -0.86400
O2145       O  0.59376163  0.94654799  0.50219218    -0.86500
O2146       O  0.59883675  0.55580261  0.49356275    -0.86200
O2147       O  0.90459854  0.55930142  0.49853336    -0.86000
O2148       O  0.94239412  0.99108847  0.40679718    -0.86300
O2149       O  0.55136660  0.99257109  0.40300404    -0.85800
O2150       O  0.90238983  0.99652909  0.44842609    -0.86900
O2151       O  0.59337815  0.99747432  0.44262023    -0.86000
O2152       O  0.94399310  0.90818306  0.51001960    -0.86400
O2153       O  0.94618313  0.59925363  0.49182001    -0.86200
O2154       O  0.55861017  0.59753980  0.49506829    -0.85800
O2155       O  0.55243359  0.90638395  0.50747176    -0.86200
O2156       O  0.49582157  0.93816205  0.41034644    -0.86500
O2157       O  0.49935716  0.55101219  0.40213372    -0.87800
Zr2158     Zr  0.49771560  0.93497413  0.50634901     2.83100
Zr2159     Zr  0.50188429  0.57192225  0.49626370     2.83500
Zr2160     Zr  0.93110072  0.00377866  0.50277851     2.84100
Zr2161     Zr  0.56747823  0.00150263  0.49844295     2.83400
Zr2162     Zr  0.49699177  0.99635466  0.43201892     2.84200
O2163       O  0.53344879  0.53451527  0.46305006    -1.08400
O2164       O  0.96453863  0.96609632  0.47166549    -1.07900
C2165       C  0.49647014  0.90806181  0.42311519     1.06700
C2166       C  0.50225679  0.58264883  0.40941295     1.09400
C2167       C  0.91290423  0.91823123  0.50862345     1.06900
C2168       C  0.58369516  0.91581935  0.50501467     1.07300
C2169       C  0.58956613  0.58688024  0.49381988     1.06900
C2170       C  0.91502874  0.59018558  0.49488020     1.06400
C2171       C  0.91141610  0.99222991  0.41736207     1.06800
C2172       C  0.58274270  0.99378329  0.41203880     1.06300
H2173       H  0.94912741  0.54585459  0.44853620     0.33000
O2174       O  0.96390234  0.53340028  0.46340216    -1.29500
H2175       H  0.54521338  0.94968732  0.45533889     0.33000
O2176       O  0.53167841  0.96518820  0.46837103    -1.30900
N2177       N  0.75067377  0.47675161  0.19936119    -0.36500
N2178       N  0.80233834  0.47345324  0.25194697    -0.57000
N2179       N  0.74878243  0.47731170  0.30210781    -0.36500
N2180       N  0.69714063  0.47705381  0.24965795    -0.57000
C2181       C  0.77867023  0.47283017  0.18005072     0.27100
C2182       C  0.72325972  0.47319573  0.17914657     0.27100
C2183       C  0.77547205  0.46850373  0.32147695     0.27100
C2184       C  0.72043197  0.47040839  0.32002588     0.27100
C2185       C  0.82288179  0.47831580  0.22508569     0.35700
C2186       C  0.82164266  0.47759295  0.27977891     0.35700
C2187       C  0.67866997  0.48479366  0.22212275     0.35700
C2188       C  0.67792086  0.48514806  0.27660639     0.35700
C2189       C  0.76887992  0.46692862  0.14702287    -0.21700
C2190       C  0.73404431  0.46665360  0.14655378    -0.21700
C2191       C  0.76397289  0.45584140  0.35198450    -0.21700
C2192       C  0.72918534  0.45685244  0.35098341    -0.21700
C2193       C  0.85566683  0.48450866  0.23595999    -0.22800
C2194       C  0.85484231  0.48420408  0.27056952    -0.22800
C2195       C  0.64748672  0.49769637  0.23166690    -0.22800
C2196       C  0.64697860  0.49782187  0.26621724    -0.22800
C2197       C  0.81275246  0.47682515  0.19083809    -0.18100
C2198       C  0.68901289  0.47911994  0.18849595    -0.18100
C2199       C  0.68716320  0.47913652  0.31039343    -0.18100
C2200       C  0.80991991  0.47374197  0.31333113    -0.18100
H2201       H  0.78513180  0.46358153  0.12532188     0.14800
H2202       H  0.71846520  0.46321523  0.12442788     0.14800
H2203       H  0.77912046  0.44711943  0.37293487     0.14800
H2204       H  0.71225323  0.44940309  0.37112151     0.14800
H2205       H  0.87789411  0.48887455  0.22057959     0.13000
H2206       H  0.87627588  0.48823518  0.28701546     0.13000
H2207       H  0.62710760  0.50586991  0.21542820     0.13000
H2208       H  0.62615364  0.50613374  0.28186942     0.13000
H2209       H  0.75047579  0.48540468  0.22391666     0.26300
H2210       H  0.74991707  0.49145327  0.28008606     0.26300
N2211       N  0.75175174  0.70236273  0.49589637    -0.36500
N2212       N  0.80153439  0.75516197  0.50097285    -0.57000
N2213       N  0.74737328  0.80394765  0.50653972    -0.36500
N2214       N  0.69768427  0.75121386  0.50273767    -0.57000
C2215       C  0.78009981  0.68425151  0.50147578     0.27100
C2216       C  0.72519959  0.68214189  0.50305015     0.27100
C2217       C  0.77436950  0.82264681  0.51601923     0.27100
C2218       C  0.71918532  0.82016592  0.51715299     0.27100
C2219       C  0.82199608  0.72955465  0.49167213     0.35700
C2220       C  0.81979776  0.78371125  0.49747067     0.35700
C2221       C  0.67971574  0.72392229  0.49355919     0.35700
C2222       C  0.67729328  0.77800960  0.49819280     0.35700
C2223       C  0.77150948  0.65212689  0.51230591    -0.21700
C2224       C  0.73676753  0.65068204  0.51295535    -0.21700
C2225       C  0.76327763  0.85109831  0.53296421    -0.21700
C2226       C  0.72840981  0.84948414  0.53376962    -0.21700
C2227       C  0.85352841  0.74180202  0.48248373    -0.22800
C2228       C  0.85214614  0.77619232  0.48615244    -0.22800
C2229       C  0.64759302  0.73326748  0.48313249    -0.22800
C2230       C  0.64618640  0.76776273  0.48568730    -0.22800
C2231       C  0.81328273  0.69515992  0.49419579    -0.18100
C2232       C  0.69095212  0.69067813  0.49816726    -0.18100
C2233       C  0.68550531  0.81077049  0.50910119    -0.18100
C2234       C  0.80836895  0.81607316  0.50685971    -0.18100
H2235       H  0.78849315  0.63158264  0.51819069     0.14800
H2236       H  0.72175651  0.62878552  0.51945121     0.14800
H2237       H  0.77868276  0.87127733  0.54300113     0.14800
H2238       H  0.71170512  0.86818100  0.54458506     0.14800
H2239       H  0.87536032  0.72741723  0.47449362     0.13000
H2240       H  0.87274811  0.79359580  0.48152306     0.13000
H2241       H  0.62716151  0.71691369  0.47521820     0.13000
H2242       H  0.62442017  0.78331549  0.48013314     0.13000
H2243       H  0.75052335  0.72556761  0.48378449     0.26300
H2244       H  0.74803440  0.78390825  0.48970314     0.26300
C2245       C  0.85826834  0.84090054  0.02740521    -0.05600
C2246       C  0.83361333  0.84396145  0.50806840     0.00300
C2247       C  0.83638533  0.86794670  0.48177736    -0.08300
C2248       C  0.86203493  0.89245368  0.48360812    -0.05700
C2249       C  0.88602916  0.89230552  0.50960901     0.00300
C2250       C  0.88485612  0.86413622  0.03062686    -0.08200
C2251       C  0.90779480  0.86287743  0.06122254     0.62200
H2252       H  0.85472139  0.82131360  0.04609866     0.13000
H2253       H  0.86453578  0.91113473  0.46384496     0.12900
C2254       C  0.81385933  0.86624587  0.45086564     0.62400
F2255       F  0.89717001  0.83898720  0.08437920    -0.22700
F2256       F  0.90780034  0.89391653  0.07696411    -0.20100
F2257       F  0.93982680  0.85460098  0.55173304    -0.19700
F2258       F  0.78292144  0.87683105  0.95723036    -0.19800
F2259       F  0.81923552  0.83602091  0.43443006    -0.20100
F2260       F  0.82064718  0.89213848  0.42844464    -0.22800
C2261       C  0.86701897  0.62021324  0.46740121    -0.05600
C2262       C  0.88966872  0.61783659  0.49452069     0.00300
C2263       C  0.87282958  0.63169266  0.01833897    -0.08300
C2264       C  0.84983193  0.65837824  0.01420576    -0.05700
C2265       C  0.84046418  0.66935096  0.49235526     0.00300
C2266       C  0.84328990  0.64660130  0.46510922    -0.08200
C2267       C  0.82264994  0.65149278  0.43320727     0.62200
H2268       H  0.86884855  0.60206391  0.44741065     0.12900
H2269       H  0.83876908  0.67050308  0.03602511     0.12900
C2270       C  0.88023169  0.61811753  0.05301296     0.62400
F2271       F  0.78861787  0.64669569  0.43967669    -0.22700
F2272       F  0.85481752  0.64149353  0.89376572    -0.20100
F2273       F  0.82752361  0.68384631  0.42111454    -0.19700
F2274       F  0.91455753  0.62014908  0.05948917    -0.19800
F2275       F  0.92007483  0.61522891  0.56236476    -0.20100
F2276       F  0.86312577  0.63564661  0.07788605    -0.22800
C2277       C  0.60480661  0.86131645  0.52664064    -0.05600
C2278       C  0.61008255  0.88929896  0.50563014     0.00300
C2279       C  0.64006274  0.89253740  0.98143312    -0.08300
C2280       C  0.66384720  0.86636101  0.98326507    -0.05700
C2281       C  0.65870723  0.83718388  0.50967744     0.00300
C2282       C  0.62902024  0.83565855  0.52994603    -0.08200
C2283       C  0.62135341  0.80826099  0.55560769     0.62200
H2284       H  0.58192445  0.86006028  0.54173464     0.12900
H2285       H  0.68440499  0.86528613  0.96519594     0.12900
C2286       C  0.64392942  0.91904281  0.95404611     0.62400
F2287       F  0.62764802  0.83592347  0.09114396    -0.22700
F2288       F  0.66011512  0.79758164  0.06589531    -0.20100
F2289       F  0.59444532  0.78904901  0.54427182    -0.19700
F2290       F  0.65700359  0.94825855  0.96778123    -0.19800
F2291       F  0.62011631  0.92662175  0.44185971    -0.20100
F2292       F  0.67508239  0.91385134  0.44147720    -0.22800
C2293       C  0.62443039  0.62760302  0.52471339    -0.05600
C2294       C  0.61662693  0.61242320  0.49401826     0.00300
C2295       C  0.61782523  0.63566463  0.96353914    -0.08300
C2296       C  0.64398424  0.65962423  0.96404146    -0.05700
C2297       C  0.66559953  0.66346124  0.49782245     0.00300
C2298       C  0.64889440  0.65293964  0.52744675    -0.08200
C2299       C  0.65707692  0.66806882  0.56165813     0.62200
H2300       H  0.61192813  0.61864548  0.54669465     0.12900
H2301       H  0.64983700  0.67424607  0.94172813     0.12900
C2302       C  0.59688018  0.63126594  0.93201273     0.62400
F2303       F  0.70610005  0.64713688  0.05532689    -0.22700
F2304       F  0.65755614  0.63959387  0.08319567    -0.20100
F2305       F  0.63804450  0.65358751  0.58715525    -0.19700
F2306       F  0.56301785  0.63611525  0.93924792    -0.19800
F2307       F  0.65185346  0.57147475  0.43958029    -0.20100
F2308       F  0.64773509  0.61726534  0.40628072    -0.22800
C2309       C  0.83392410  0.00857342  0.36228346    -0.05600
C2310       C  0.83459005  0.47533000  0.34175955     0.00300
C2311       C  0.85945494  0.45034146  0.34761035    -0.08300
C2312       C  0.88389094  0.45593257  0.37274162    -0.05700
C2313       C  0.88416221  0.98862169  0.39164348     0.00300
C2314       C  0.85718738  0.01202768  0.38883515    -0.08200
C2315       C  0.85277898  0.04055287  0.41373160     0.62200
H2316       H  0.81396747  0.02697698  0.35902891     0.12900
H2317       H  0.90396877  0.43766978  0.37630858     0.12900
C2318       C  0.86084143  0.41722618  0.32876520     0.62400
F2319       F  0.82687350  0.55924944  0.40298271    -0.22700
F2320       F  0.88233739  0.55501625  0.41376748    -0.20100
F2321       F  0.84230394  0.02758164  0.44435216    -0.19700
F2322       F  0.88809496  0.41761397  0.30692932    -0.19800
F2323       F  0.83411030  0.91922962  0.30343909    -0.20100
F2324       F  0.86117404  0.89706062  0.34723867    -0.22800
C2325       C  0.63510701  0.01530242  0.38572006    -0.05600
C2326       C  0.60890426  0.99143165  0.38532088     0.00300
C2327       C  0.60677806  0.46141544  0.36014753    -0.08300
C2328       C  0.63395605  0.45876526  0.33723178    -0.05700
C2329       C  0.66057401  0.48222260  0.33688390     0.00300
C2330       C  0.66072540  0.01568482  0.36109864    -0.08200
C2331       C  0.68648940  0.04422129  0.36099686     0.62200
H2332       H  0.63488860  0.03428310  0.40524822     0.12900
H2333       H  0.63442110  0.43869144  0.31879138     0.12900
C2334       C  0.57801107  0.43606758  0.35840536     0.62400
F2335       F  0.71843779  0.03210766  0.36803581    -0.22700
F2336       F  0.69163260  0.54810532  0.32577217    -0.20100
F2337       F  0.68681937  0.05970235  0.32979592    -0.19700
F2338       F  0.54825540  0.45220642  0.34985984    -0.19800
F2339       F  0.57615142  0.92484510  0.38960888    -0.20100
F2340       F  0.58394545  0.41139615  0.33447560    -0.22800
C2341       C  0.61254609  0.46782301  0.13044890    -0.05600
C2342       C  0.61575611  0.49616097  0.10952174     0.00300
C2343       C  0.62292686  0.03242523  0.12951290    -0.08300
C2344       C  0.64813811  0.02878980  0.15412940    -0.05700
C2345       C  0.66334903  0.48353570  0.16119069     0.00300
C2346       C  0.63669093  0.46026493  0.15538122    -0.08200
C2347       C  0.63481554  0.42672965  0.17377467     0.62200
H2348       H  0.59139492  0.45096898  0.12627697     0.12900
H2349       H  0.65473861  0.04981073  0.17020288     0.12900
C2350       C  0.60540393  0.06600679  0.12474353     0.62400
F2351       F  0.67232615  0.92515420  0.17433804    -0.22700
F2352       F  0.70929168  0.94028872  0.13376294    -0.20100
F2353       F  0.60804370  0.40718062  0.16256048    -0.19700
F2354       F  0.57164943  0.06325631  0.13353160    -0.19800
F2355       F  0.66390638  0.53574408  0.06088565    -0.20100
F2356       F  0.67228215  0.57071056  0.10459159    -0.22800
C2357       C  0.87194540  0.97233733  0.11560192    -0.05600
C2358       C  0.88779231  0.49840996  0.11434708     0.00300
C2359       C  0.87218460  0.52464859  0.13299462    -0.08300
C2360       C  0.84739106  0.51634128  0.15703340    -0.05700
C2361       C  0.83907382  0.48286509  0.16449436     0.00300
C2362       C  0.84685592  0.96670463  0.14003360    -0.08200
C2363       C  0.82838684  0.93316179  0.14112415     0.62200
H2364       H  0.87682080  0.95352903  0.09646413     0.12900
H2365       H  0.83483826  0.53631592  0.17086124     0.12900
C2366       C  0.88094597  0.56154433  0.12972777     0.62400
F2367       F  0.83935354  0.91161492  0.11597647    -0.22700
F2368       F  0.81701094  0.41148389  0.15676114    -0.20100
F2369       F  0.83417220  0.91779554  0.17183742    -0.19700
F2370       F  0.90555940  0.56759616  0.10586475    -0.19800
F2371       F  0.94183976  0.04702929  0.15336533    -0.20100
F2372       F  0.85211552  0.57941558  0.12133944    -0.22800
C2373       C  0.53267010  0.62806078  0.37939520    -0.05600
C2374       C  0.50424017  0.60691938  0.38115352     0.00300
C2375       C  0.97175864  0.61922305  0.36378937    -0.08300
C2376       C  0.97586968  0.64432616  0.33915649    -0.05700
C2377       C  0.50962956  0.65642717  0.33032499     0.00300
C2378       C  0.53630177  0.65226547  0.35375044    -0.08200
C2379       C  0.56891907  0.67238830  0.35084904     0.62200
H2380       H  0.55225713  0.62516942  0.39816679     0.12900
H2381       H  0.95409007  0.65805663  0.32993432     0.12900
C2382       C  0.93677428  0.61090794  0.37694988     0.62400
F2383       F  0.59199171  0.66356676  0.37553228    -0.22700
F2384       F  0.56251821  0.70644275  0.35393316    -0.20100
F2385       F  0.58360331  0.66630385  0.31980915    -0.19700
F2386       F  0.93480822  0.61879335  0.41079650    -0.19800
F2387       F  0.93063147  0.57692400  0.37258497    -0.20100
F2388       F  0.91180186  0.62865657  0.36014058    -0.22800
C2389       C  0.52132084  0.82864973  0.37442175    -0.05600
C2390       C  0.49870733  0.83015381  0.34724156     0.00300
C2391       C  0.97341930  0.85419261  0.34923618    -0.08300
C2392       C  0.97494052  0.88005542  0.37337909    -0.05700
C2393       C  0.49650412  0.87916254  0.39910764     0.00300
C2394       C  0.51952237  0.85167287  0.40142073    -0.08200
C2395       C  0.54186193  0.84620979  0.43205710     0.62200
H2396       H  0.54027754  0.80896662  0.37437301     0.12900
H2397       H  0.95636139  0.90012885  0.37253645     0.12900
C2398       C  0.94287718  0.85359891  0.32618299     0.62400
F2399       F  0.56340859  0.81901746  0.42795268    -0.22700
F2400       F  0.52177857  0.83972431  0.45989660    -0.20100
F2401       F  0.56142821  0.87443009  0.43797545    -0.19700
F2402       F  0.93992663  0.82402425  0.30810234    -0.19800
F2403       F  0.94473237  0.88034615  0.30397358    -0.20100
F2404       F  0.91389847  0.85665988  0.34546957    -0.22800
C2405       C  0.97148136  0.88920615  0.13664089    -0.05600
C2406       C  0.50427357  0.90006464  0.12350636     0.00300
C2407       C  0.53526369  0.89027135  0.13841275    -0.08300
C2408       C  0.53513843  0.86450178  0.16283173    -0.05700
C2409       C  0.50498795  0.84903705  0.17338377     0.00300
C2410       C  0.97027732  0.86445837  0.16214613    -0.08200
C2411       C  0.93640709  0.85345199  0.17664774     0.62200
H2412       H  0.94830798  0.89966385  0.12665072     0.12900
H2413       H  0.55867446  0.85607599  0.17394532     0.12900
C2414       C  0.56821841  0.90741397  0.12900540     0.62400
F2415       F  0.90975566  0.87126948  0.16272928    -0.22700
F2416       F  0.93615038  0.85882441  0.21105000    -0.20100
F2417       F  0.93097841  0.81964710  0.17044173    -0.19700
F2418       F  0.56754809  0.94023366  0.14053595    -0.19800
F2419       F  0.57244551  0.90752428  0.09446128    -0.20100
F2420       F  0.59584149  0.89131101  0.14311166    -0.22800
C2421       C  0.53360605  0.66461490  0.13869659    -0.05600
C2422       C  0.50366490  0.67334082  0.15538940     0.00300
C2423       C  0.96790138  0.64952270  0.15095322    -0.08300
C2424       C  0.97110710  0.62448811  0.12615477    -0.05700
C2425       C  0.50337650  0.62318152  0.10494948     0.00300
C2426       C  0.53399966  0.63938325  0.11387136    -0.08200
C2427       C  0.56718799  0.62795229  0.09914706     0.62200
H2428       H  0.55691111  0.67672735  0.14642814     0.12900
H2429       H  0.95242246  0.60458356  0.12503109     0.12900
C2430       C  0.93675222  0.64754182  0.17330348     0.62400
F2431       F  0.59425604  0.64650362  0.11120853    -0.22700
F2432       F  0.56643456  0.63102922  0.06450316    -0.20100
F2433       F  0.57185822  0.59468928  0.10797315    -0.19700
F2434       F  0.93375653  0.67443296  0.19512174    -0.19800
F2435       F  0.93785817  0.61810831  0.19195128    -0.20100
F2436       F  0.90812152  0.64695797  0.15326699    -0.22800
N2437       N  0.50144537  0.76010940  0.70005578    -0.36500
N2438       N  0.49652340  0.80677957  0.75628463    -0.57000
N2439       N  0.49863130  0.74971417  0.80308681    -0.36500
N2440       N  0.49962766  0.70306128  0.74706445    -0.57000
C2441       C  0.49812779  0.78942048  0.68288059     0.27100
C2442       C  0.49666527  0.73464062  0.67789687     0.27100
C2443       C  0.48847310  0.77487578  0.82379521     0.27100
C2444       C  0.49308038  0.72022189  0.81943710     0.27100
C2445       C  0.50208721  0.82940568  0.73139517     0.35700
C2446       C  0.49942473  0.82369961  0.78564673     0.35700
C2447       C  0.50249464  0.68584608  0.71781761     0.35700
C2448       C  0.50406791  0.68045736  0.77222189     0.35700
C2449       C  0.49262413  0.78242012  0.64911505    -0.21700
C2450       C  0.49099093  0.74804349  0.64610751    -0.21700
C2451       C  0.47622824  0.76121796  0.85355532    -0.21700
C2452       C  0.47957762  0.72687224  0.85103796    -0.21700
C2453       C  0.50804508  0.86098465  0.74500025    -0.22800
C2454       C  0.50680609  0.85729519  0.77934253    -0.22800
C2455       C  0.50859528  0.65209385  0.72453080    -0.22800
C2456       C  0.50915684  0.64863018  0.75887530    -0.22800
C2457       C  0.50003256  0.82240878  0.69653547    -0.18100
C2458       C  0.49822969  0.69959830  0.68505841    -0.18100
C2459       C  0.50089853  0.68757914  0.80703163    -0.18100
C2460       C  0.49256845  0.80988416  0.81786646    -0.18100
H2461       H  0.48934498  0.80022026  0.62872542     0.14800
H2462       H  0.48620653  0.73457554  0.62293066     0.14800
H2463       H  0.46651071  0.77465596  0.87520710     0.14800
H2464       H  0.47278944  0.70903200  0.87050173     0.14800
H2465       H  0.51271811  0.88430311  0.73163475     0.13000
H2466       H  0.51033839  0.87727387  0.79751616     0.13000
H2467       H  0.51197396  0.63188290  0.70658383     0.13000
H2468       H  0.51260595  0.62523278  0.77244925     0.13000
H2469       H  0.50879836  0.75766036  0.72490152     0.26300
H2470       H  0.51241917  0.75262430  0.78098810     0.26300
O2471       O  0.50031217  0.60397253  0.54921743    -0.86300
O2472       O  0.49856482  0.91286977  0.56406909    -0.86500
O2473       O  0.95009611  0.50750994  0.59822347    -0.88200
O2474       O  0.55800026  0.51050585  0.59498520    -0.86900
O2475       O  0.59705156  0.99861207  0.55213091    -0.86500
O2476       O  0.90508163  0.00309119  0.55941272    -0.87900
O2477       O  0.50027856  0.95706258  0.60139345    -0.86400
O2478       O  0.50010956  0.56674787  0.59346587    -0.86000
Zr2479     Zr  0.50071794  0.00833350  0.56810935     2.84300
O2480       O  0.53333191  0.97119317  0.53604088    -1.07900
O2481       O  0.96772673  0.53980658  0.53202660    -1.08700
C2482       C  0.49984032  0.59689691  0.58105398     1.06800
C2483       C  0.49964968  0.92544974  0.59410644     1.06700
C2484       C  0.91867593  0.50520765  0.58964758     1.09700
C2485       C  0.58866658  0.50813474  0.58387904     1.07500
H2486       H  0.95259319  0.95889574  0.55407304     0.33000
O2487       O  0.96611224  0.97213006  0.53863694    -1.28900
H2488       H  0.55088367  0.55491328  0.54456936     0.32700
O2489       O  0.53619368  0.54012050  0.53197478    -1.30600
O2490       O  0.49952818  0.90153508  0.95653678    -0.86300
O2491       O  0.49927091  0.59444589  0.93952960    -0.87800
O2492       O  0.90541503  0.94565060  0.00485329    -0.86400
O2493       O  0.59569517  0.94997392  0.00144236    -0.86500
O2494       O  0.59648681  0.55846096  0.99569450    -0.86200
O2495       O  0.90322776  0.55892979  0.99634939    -0.86000
O2496       O  0.94144771  0.98741287  0.90689802    -0.86300
O2497       O  0.54951857  0.99469506  0.90378572    -0.85800
O2498       O  0.90201052  0.99255502  0.94913690    -0.86900
O2499       O  0.59214566  0.00025197  0.94255412    -0.86000
O2500       O  0.94637365  0.90473015  0.00788030    -0.86400
O2501       O  0.94459519  0.59936837  0.99037949    -0.86200
O2502       O  0.55470127  0.59849657  0.99336116    -0.85800
O2503       O  0.55544067  0.90877345  0.00820598    -0.86200
O2504       O  0.49621923  0.93900380  0.91264902    -0.86500
O2505       O  0.49676710  0.55111644  0.90119901    -0.87800
Zr2506     Zr  0.49969701  0.93515809  0.00800923     2.83100
Zr2507     Zr  0.49987331  0.57016272  0.99628331     2.83500
Zr2508     Zr  0.93211533  0.00066782  0.00194838     2.84100
Zr2509     Zr  0.56676618  0.00394723  0.99881818     2.83400
Zr2510     Zr  0.49599116  0.99681916  0.93401166     2.84200
O2511       O  0.53247265  0.53431151  0.96283917    -1.08400
O2512       O  0.96570378  0.96355083  0.97069335    -1.07900
C2513       C  0.49789676  0.90881093  0.92489244     1.06700
C2514       C  0.49811572  0.58274084  0.90917188     1.09400
C2515       C  0.91538839  0.91476795  0.00658514     1.06900
C2516       C  0.58634384  0.91900208  0.00484336     1.07300
C2517       C  0.58600582  0.58919658  0.99371138     1.06900
C2518       C  0.91337510  0.58975918  0.99228361     1.06400
C2519       C  0.91062001  0.98807878  0.91810085     1.06800
C2520       C  0.58099922  0.99628514  0.91217778     1.06300
H2521       H  0.95007092  0.54709357  0.94816331     0.33000
O2522       O  0.96420439  0.53435532  0.96328544    -1.29500
H2523       H  0.54581673  0.95140351  0.95619688     0.33000
O2524       O  0.53200900  0.96637167  0.96946664    -1.30900
N2525       N  0.75189312  0.48908394  0.69774140    -0.36500
N2526       N  0.80268579  0.48489003  0.75045465    -0.57000
N2527       N  0.74909261  0.48858653  0.80046392    -0.36500
N2528       N  0.69852737  0.49451646  0.74838966    -0.57000
C2529       C  0.78024934  0.49274917  0.67880830     0.27100
C2530       C  0.72525722  0.49657809  0.67768385     0.27100
C2531       C  0.77522850  0.47718188  0.81923143     0.27100
C2532       C  0.72047812  0.48265477  0.81830603     0.27100
C2533       C  0.82400644  0.48776854  0.72403907     0.35700
C2534       C  0.82192919  0.48675463  0.77845487     0.35700
C2535       C  0.67900539  0.49827118  0.72075898     0.35700
C2536       C  0.67814883  0.49925550  0.77535990     0.35700
C2537       C  0.77138298  0.50220875  0.64636283    -0.21700
C2538       C  0.73682109  0.50472235  0.64568495    -0.21700
C2539       C  0.76312268  0.46349211  0.84903147    -0.21700
C2540       C  0.72848967  0.46682900  0.84840205    -0.21700
C2541       C  0.85705821  0.49109446  0.73541490    -0.22800
C2542       C  0.85563343  0.49115629  0.76986139    -0.22800
C2543       C  0.64598692  0.50548339  0.73030145    -0.22800
C2544       C  0.64562377  0.50682650  0.76480612    -0.22800
C2545       C  0.81414907  0.48922777  0.68984007    -0.18100
C2546       C  0.69064950  0.49664864  0.68701940    -0.18100
C2547       C  0.68761656  0.49323732  0.80917635    -0.18100
C2548       C  0.80985463  0.48141973  0.81148768    -0.18100
H2549       H  0.78813010  0.50748811  0.62540738     0.14800
H2550       H  0.72189971  0.51214354  0.62408634     0.14800
H2551       H  0.77782120  0.45268291  0.86931826     0.14800
H2552       H  0.71120476  0.45913353  0.86815067     0.14800
H2553       H  0.87990322  0.49380049  0.72059546     0.13000
H2554       H  0.87711889  0.49337985  0.78656757     0.13000
H2555       H  0.62435171  0.50976943  0.71421304     0.13000
H2556       H  0.62360027  0.51172778  0.78027154     0.13000
H2557       H  0.75054183  0.47968670  0.72207828     0.26300
H2558       H  0.75106383  0.50354947  0.77899990     0.26300
N2559       N  0.75001400  0.70317124  0.98483830    -0.36500
N2560       N  0.80140621  0.75498222  0.98862210    -0.57000
N2561       N  0.74875530  0.80535439  0.99948525    -0.36500
N2562       N  0.69757102  0.75361262  0.99855984    -0.57000
C2563       C  0.77802455  0.68352902  0.98420949     0.27100
C2564       C  0.72302956  0.68265076  0.98929353     0.27100
C2565       C  0.77672408  0.82298765  0.00787932     0.27100
C2566       C  0.72185387  0.82245656  0.01170215     0.27100
C2567       C  0.82159496  0.72897913  0.97979598     0.35700
C2568       C  0.82047487  0.78313051  0.98659043     0.35700
C2569       C  0.67759734  0.72664449  0.99279701     0.35700
C2570       C  0.67717779  0.78091821  0.99797571     0.35700
C2571       C  0.76852597  0.65000272  0.98699167    -0.21700
C2572       C  0.73390569  0.64942429  0.98967254    -0.21700
C2573       C  0.76751713  0.85158983  0.02576569    -0.21700
C2574       C  0.73277746  0.85133383  0.02801079    -0.21700
C2575       C  0.85381272  0.74064493  0.97232641    -0.22800
C2576       C  0.85301212  0.77502028  0.97623079    -0.22800
C2577       C  0.64419512  0.73687537  0.98930311    -0.22800
C2578       C  0.64406724  0.77130214  0.99181018    -0.22800
C2579       C  0.81194774  0.69466758  0.98056826    -0.18100
C2580       C  0.68872678  0.69277272  0.99205066    -0.18100
C2581       C  0.68763450  0.81389339  0.00627603    -0.18100
C2582       C  0.80998335  0.81541700  0.99732644    -0.18100
H2583       H  0.78479148  0.62808637  0.98674326     0.14800
H2584       H  0.71853965  0.62694582  0.99191630     0.14800
H2585       H  0.78406512  0.87104219  0.03544905     0.14800
H2586       H  0.71727709  0.87039015  0.03992703     0.14800
H2587       H  0.87565469  0.72590278  0.96505385     0.13000
H2588       H  0.87424464  0.79195731  0.97284773     0.13000
H2589       H  0.62208981  0.72130506  0.98528133     0.13000
H2590       H  0.62193029  0.78723814  0.99024982     0.13000
H2591       H  0.74900202  0.72879886  0.98037431     0.26300
H2592       H  0.74781288  0.78552787  0.98244868     0.26300
C2593       C  0.85692190  0.84447441  0.53471186    -0.05600
C2594       C  0.83600123  0.84212408  0.99997355     0.00300
C2595       C  0.83947762  0.86751630  0.97518129    -0.08300
C2596       C  0.86617737  0.89053774  0.97828761    -0.05700
C2597       C  0.88882765  0.88899184  0.00536727     0.00300
C2598       C  0.88364978  0.86795112  0.53563258    -0.08200
C2599       C  0.90932387  0.86650247  0.56399742     0.62200
H2600       H  0.85471350  0.82542034  0.55413912     0.13000
H2601       H  0.86971375  0.91002620  0.95946502     0.12900
C2602       C  0.81523752  0.87026195  0.94564268     0.62400
F2603       F  0.89884300  0.84537301  0.58974377    -0.22700
F2604       F  0.91407824  0.89824936  0.57743968    -0.20100
F2605       F  0.94041943  0.85484749  0.05152633    -0.19700
F2606       F  0.78019493  0.86849642  0.46003551    -0.19800
F2607       F  0.81506322  0.84045475  0.92767655    -0.20100
F2608       F  0.82426009  0.89603612  0.92385909    -0.22800
C2609       C  0.87684197  0.62714999  0.95755613    -0.05600
C2610       C  0.88726467  0.61651396  0.98956631     0.00300
C2611       C  0.88928857  0.64330660  0.51961156    -0.08300
C2612       C  0.86349652  0.66760206  0.51898458    -0.05700
C2613       C  0.83913874  0.66867713  0.98216217     0.00300
C2614       C  0.85196443  0.65218083  0.95328686    -0.08200
C2615       C  0.83825823  0.65979305  0.91845076     0.62200
H2616       H  0.88740230  0.61489835  0.93590681     0.12900
H2617       H  0.86156592  0.68615718  0.53887103     0.12900
C2618       C  0.91658214  0.64573291  0.54625325     0.62400
F2619       F  0.80427442  0.65153337  0.91726520    -0.22700
F2620       F  0.83219638  0.62924353  0.40815634    -0.20100
F2621       F  0.84208941  0.69361605  0.91113963    -0.19700
F2622       F  0.94695142  0.65433174  0.53119728    -0.19800
F2623       F  0.86990484  0.58484915  0.05411075    -0.20100
F2624       F  0.90922781  0.66993687  0.57026426    -0.22800
C2625       C  0.61084532  0.86743875  0.02944432    -0.05600
C2626       C  0.61306390  0.89296499  0.00506859     0.00300
C2627       C  0.64004325  0.89105859  0.48578952    -0.08300
C2628       C  0.66335419  0.86452267  0.48777719    -0.05700
C2629       C  0.66198930  0.84126505  0.00811307     0.00300
C2630       C  0.63555863  0.84226937  0.03231778    -0.08200
C2631       C  0.63210207  0.81792134  0.06165130     0.62200
H2632       H  0.58998878  0.86767347  0.04719282     0.12900
H2633       H  0.68601849  0.86505622  0.47238716     0.12900
C2634       C  0.64767849  0.92036228  0.46224641     0.62400
F2635       F  0.61229891  0.82292766  0.58591462    -0.22700
F2636       F  0.64850687  0.78731406  0.56178821    -0.20100
F2637       F  0.60399412  0.79773773  0.05666948    -0.19700
F2638       F  0.65523032  0.94880440  0.48087191    -0.19800
F2639       F  0.61306157  0.92596488  0.93951876    -0.20100
F2640       F  0.66542989  0.90840760  0.92861643    -0.22800
C2641       C  0.63058532  0.62241815  0.02197032    -0.05600
C2642       C  0.61195735  0.61597564  0.99265658     0.00300
C2643       C  0.63507663  0.62143062  0.46493144    -0.08300
C2644       C  0.65902101  0.64746825  0.46714746    -0.05700
C2645       C  0.66250800  0.66601104  0.99335445     0.00300
C2646       C  0.65513104  0.64802756  0.02326615    -0.08200
C2647       C  0.67243450  0.65634915  0.05644090     0.62200
H2648       H  0.62513049  0.60780766  0.04414453     0.12900
H2649       H  0.67363545  0.65485236  0.44522927     0.12900
C2650       C  0.63359221  0.60046145  0.43344263     0.62400
F2651       F  0.65051348  0.70225148  0.56131736    -0.22700
F2652       F  0.69079144  0.66300285  0.56929245    -0.20100
F2653       F  0.67025364  0.69053970  0.06273696    -0.19700
F2654       F  0.60063942  0.59217380  0.42523719    -0.19800
F2655       F  0.60159448  0.59918482  0.91937246    -0.20100
F2656       F  0.60589531  0.65438526  0.90751277    -0.22800
C2657       C  0.83355788  0.00484630  0.86319286    -0.05600
C2658       C  0.83446683  0.48181140  0.83979820     0.00300
C2659       C  0.85963733  0.45685418  0.84462770    -0.08300
C2660       C  0.88428731  0.46202331  0.86960893    -0.05700
C2661       C  0.88277081  0.98393986  0.89337646     0.00300
C2662       C  0.85773719  0.00909884  0.88874301    -0.08200
C2663       C  0.85692030  0.04064955  0.91019461     0.62200
H2664       H  0.81522943  0.02449045  0.85818419     0.12900
H2665       H  0.90406765  0.44340900  0.87302742     0.12900
C2666       C  0.86176594  0.42452681  0.82443250     0.62400
F2667       F  0.83320418  0.56939647  0.89556060    -0.22700
F2668       F  0.88778120  0.56126524  0.90756323    -0.20100
F2669       F  0.84804249  0.03238527  0.94285493    -0.19700
F2670       F  0.89097462  0.42498153  0.80520870    -0.19800
F2671       F  0.82364507  0.90999399  0.81577366    -0.20100
F2672       F  0.85681036  0.88967297  0.85625411    -0.22800
C2673       C  0.63287917  0.01671491  0.88363393    -0.05600
C2674       C  0.60649191  0.99303151  0.88495125     0.00300
C2675       C  0.60791150  0.47215940  0.85847889    -0.08300
C2676       C  0.63520119  0.47078510  0.83571201    -0.05700
C2677       C  0.66103201  0.49502597  0.83591627     0.00300
C2678       C  0.65783609  0.01565532  0.85837739    -0.08200
C2679       C  0.68323026  0.04446976  0.85714496     0.62200
H2680       H  0.63325617  0.03705955  0.90182506     0.12900
H2681       H  0.63603538  0.45144363  0.81651787     0.12900
C2682       C  0.57891712  0.44729847  0.85459095     0.62400
F2683       F  0.70616279  0.04072030  0.88312967    -0.22700
F2684       F  0.67805330  0.57470125  0.88249274    -0.20100
F2685       F  0.70075625  0.04617824  0.82703840    -0.19700
F2686       F  0.54994493  0.46427008  0.84506011    -0.19800
F2687       F  0.57046503  0.92768832  0.89053479    -0.20100
F2688       F  0.58567677  0.42317786  0.83033959    -0.22800
C2689       C  0.63217834  0.47577317  0.61365212    -0.05600
C2690       C  0.61581230  0.50666382  0.60914247     0.00300
C2691       C  0.62071954  0.02320571  0.63284292    -0.08300
C2692       C  0.64647611  0.01859178  0.65679697    -0.05700
C2693       C  0.66523999  0.49921871  0.65948410     0.00300
C2694       C  0.65692572  0.47140773  0.63861403    -0.08200
C2695       C  0.67343782  0.43712387  0.64297724     0.62200
H2696       H  0.62488451  0.45487351  0.59770857     0.12900
H2697       H  0.65175702  0.03816241  0.67503551     0.12900
C2698       C  0.59968283  0.05514112  0.63337453     0.62400
F2699       F  0.70963857  0.93119931  0.63306577    -0.22700
F2700       F  0.66282948  0.90529819  0.61496954    -0.20100
F2701       F  0.70784388  0.43931629  0.63720832    -0.19700
F2702       F  0.56764419  0.04778883  0.64541849    -0.19800
F2703       F  0.61776447  0.57752209  0.58885165    -0.20100
F2704       F  0.62488109  0.59382736  0.64230560    -0.22800
C2705       C  0.87321379  0.96820217  0.61888325    -0.05600
C2706       C  0.89349128  0.50135223  0.61671269     0.00300
C2707       C  0.88569727  0.52747206  0.63953994    -0.08300
C2708       C  0.85883607  0.52291362  0.66216292    -0.05700
C2709       C  0.84140899  0.49223854  0.66416274     0.00300
C2710       C  0.84968852  0.96109313  0.64468316    -0.08200
C2711       C  0.83526552  0.92588263  0.64872692     0.62200
H2712       H  0.87892244  0.94931892  0.60008731     0.12900
H2713       H  0.85157475  0.54300407  0.67913370     0.12900
C2714       C  0.90537850  0.56000617  0.63965346     0.62400
F2715       F  0.80046460  0.92639547  0.64548923    -0.22700
F2716       F  0.80056210  0.43361805  0.63306324    -0.20100
F2717       F  0.84815086  0.90389523  0.62493238    -0.19700
F2718       F  0.90324115  0.57457289  0.60824402    -0.19800
F2719       F  0.94003187  0.04550058  0.65236096    -0.20100
F2720       F  0.89295997  0.58264691  0.66307869    -0.22800
C2721       C  0.52946507  0.61765837  0.86733600    -0.05600
C2722       C  0.49830224  0.60779838  0.88135175     0.00300
C2723       C  0.97548790  0.61544992  0.85935821    -0.08300
C2724       C  0.97831130  0.64056330  0.83453215    -0.05700
C2725       C  0.50126515  0.65874663  0.83140668     0.00300
C2726       C  0.53165186  0.64374757  0.84316459    -0.08200
C2727       C  0.56615535  0.65630755  0.83154347     0.62200
H2728       H  0.55220249  0.60558740  0.87644273     0.12900
H2729       H  0.95604140  0.64954957  0.82145062     0.12900
C2730       C  0.94122738  0.60107736  0.86793650     0.62400
F2731       F  0.59224337  0.63777582  0.84548316    -0.22700
F2732       F  0.57016192  0.68962720  0.84088670    -0.20100
F2733       F  0.56923953  0.65386258  0.79702509    -0.19700
F2734       F  0.93551687  0.60570552  0.90185586    -0.19800
F2735       F  0.94065608  0.56706303  0.86048234    -0.20100
F2736       F  0.91539712  0.61666725  0.85029877    -0.22800
C2737       C  0.51544445  0.82976645  0.87255499    -0.05600
C2738       C  0.49073643  0.83321330  0.84736571     0.00300
C2739       C  0.97403740  0.85411694  0.84674342    -0.08300
C2740       C  0.97460197  0.87881023  0.87206505    -0.05700
C2741       C  0.49587590  0.88085130  0.90017254     0.00300
C2742       C  0.51804011  0.85263414  0.89958653    -0.08200
C2743       C  0.54511009  0.84695133  0.92618756     0.62200
H2744       H  0.53321156  0.80912555  0.87039923     0.12900
H2745       H  0.95520926  0.89813122  0.87221197     0.12900
C2746       C  0.94405297  0.85436023  0.82285723     0.62400
F2747       F  0.56390723  0.81819776  0.91983829    -0.22700
F2748       F  0.53037004  0.84320061  0.95753314    -0.20100
F2749       F  0.56713021  0.87389250  0.92688787    -0.19700
F2750       F  0.94241618  0.82628327  0.80239929    -0.19800
F2751       F  0.94558583  0.88281071  0.80279301    -0.20100
F2752       F  0.91450070  0.85515863  0.84150415    -0.22800
C2753       C  0.97649700  0.89000157  0.63699786    -0.05600
C2754       C  0.50008824  0.90157581  0.62248364     0.00300
C2755       C  0.53045729  0.89277883  0.63905639    -0.08300
C2756       C  0.52963426  0.86673896  0.66314165    -0.05700
C2757       C  0.49901255  0.85133429  0.67255123     0.00300
C2758       C  0.97603115  0.86468105  0.66179778    -0.08200
C2759       C  0.94283914  0.85475984  0.67832261     0.62200
H2760       H  0.95312629  0.90148927  0.62871963     0.12900
H2761       H  0.55277658  0.85840370  0.67510275     0.12900
C2762       C  0.56311620  0.91162334  0.63187083     0.62400
F2763       F  0.91576446  0.87239544  0.66499276    -0.22700
F2764       F  0.94441557  0.86159308  0.71241179    -0.20100
F2765       F  0.93674006  0.82079819  0.67377003    -0.19700
F2766       F  0.55927897  0.94494419  0.64127354    -0.19800
F2767       F  0.57072256  0.91013201  0.59789796    -0.20100
F2768       F  0.59013415  0.89840427  0.64962702    -0.22800
C2769       C  0.52154626  0.67580924  0.63193325    -0.05600
C2770       C  0.49572176  0.67558285  0.65617406     0.00300
C2771       C  0.97490909  0.65140260  0.65060777    -0.08300
C2772       C  0.97511187  0.62684862  0.62509259    -0.05700
C2773       C  0.49845066  0.62543497  0.60549797     0.00300
C2774       C  0.52219264  0.65225443  0.60550348    -0.08200
C2775       C  0.54959536  0.65437690  0.57925540     0.62200
H2776       H  0.54122889  0.69471346  0.63394541     0.12900
H2777       H  0.95462482  0.60897139  0.62383534     0.12900
C2778       C  0.94492396  0.65166488  0.67475043     0.62400
F2779       F  0.57200752  0.68052499  0.58522952    -0.22700
F2780       F  0.53558615  0.65928415  0.54775645    -0.20100
F2781       F  0.56702811  0.62448219  0.57998495    -0.19700
F2782       F  0.94389593  0.67981644  0.69517438    -0.19800
F2783       F  0.94627109  0.62331867  0.69497308    -0.20100
F2784       F  0.91507770  0.65108830  0.65661194    -0.22800
loop_ 
_geom_bond_atom_site_label_1 
_geom_bond_atom_site_label_2 
_geom_bond_distance 
_geom_bond_site_symmetry_2 
_ccdc_geom_bond_type 
N1            C6   1.357       .  A
N1            C5   1.357       .  A
N1           H33   1.038       .  S
N2            C9   1.356       .  A
N2           C10   1.355       .  A
N3            C8   1.355       .  A
N3            C7   1.357       .  A
N3           H34   1.037       .  S
N4           C11   1.355       .  A
N4           C12   1.354       .  A
C5           C13   1.388   1_455  A
C5           C21   1.423       .  A
C6           C22   1.418       .  A
C6           C14   1.385   1_455  A
C7           C15   1.387   1_455  A
C7           C24   1.421       .  A
C8           C23   1.420       .  A
C8           C16   1.388   1_455  A
C9           C21   1.421       .  A
C9           C17   1.386       .  A
C10          C24   1.424       .  A
C10          C18   1.387       .  A
C11          C19   1.386       .  A
C11          C22   1.419       .  A
C12          C20   1.387       .  A
C12          C23   1.419       .  A
C13          C14   1.373       .  A
C13          H25   1.081       .  S
C14          H26   1.082       .  S
C15          C16   1.375       .  A
C15          H27   1.082       .  S
C16          H28   1.082       .  S
C17          C18   1.375       .  A
C17          H29   1.082       .  S
C18          H30   1.082       .  S
C19          C20   1.373       .  A
C19          H31   1.082       .  S
C20          H32   1.082       .  S
C21         C321   1.502       .  S
C22         C334   1.499       .  S
C23         C289   1.495       .  S
C24         C302   1.503       .  S
O35          C46   1.295   1_655  A
O35        Zr419   2.454   1_554  S
O36          C47   1.296       .  A
O36        Zr418   2.460       .  S
O37          C48   1.293       .  A
O37       Zr2131   2.451       .  S
O38          C49   1.291       .  A
O38        Zr739   2.437       .  S
O39         C745   1.290       .  A
O39        Zr421   2.432   1_554  S
O40         C744   1.295       .  A
O40        Zr420   2.455       .  S
O41          C47   1.295       .  A
O41         Zr43   2.460   1_455  S
O42          C46   1.297       .  A
O42        Zr739   2.463       .  S
Zr43       O2125   2.459       .  S
Zr43        O734   2.449   1_655  S
Zr43        O738   2.455       .  S
Zr43         O44   2.346   1_655  S
Zr43       O2133   2.351       .  S
Zr43        O749   2.354   1_655  S
Zr43       O1443   2.343       .  S
O44        Zr418   2.333       .  S
O44        Zr421   2.343   1_554  S
O45       Zr2131   2.344       .  S
O45       Zr1811   2.352   1_554  S
O45       Zr1116   2.339       .  S
C46         C337   1.493       .  S
C47         C318   1.490       .  S
C48         C270   1.489       .  S
C48         O736   1.296       .  A
C49         C254   1.480       .  S
C49         O735   1.292       .  A
H50          O51   0.964       .  S
O51       Zr1435   2.343       .  S
O51       Zr1810   2.346       .  S
O51        Zr420   2.341       .  S
H52          O53   0.965       .  S
O53        Zr739   2.335       .  S
O53        Zr419   2.354   1_454  S
O53       Zr1117   2.344   1_554  S
O54          C77   1.293       .  A
O54         Zr70   2.451       .  S
O55          C78   1.294       .  A
O55         Zr71   2.451       .  S
O56          C79   1.292       .  A
O56         Zr72   2.440       .  S
O57          C80   1.287       .  A
O57         Zr73   2.420       .  S
O58          C81   1.297       .  A
O58        Zr769   2.469       .  S
O59          C82   1.297       .  A
O59        Zr768   2.465       .  S
O60          C83   1.298       .  A
O60       Zr1466   2.470       .  S
O61          C84   1.286       .  A
O61         Zr74   2.414   1_455  S
O62          C83   1.288       .  A
O62         Zr72   2.427       .  S
O63          C84   1.294       .  A
O63         Zr73   2.444       .  S
O64          C79   1.289       .  A
O64       Zr1462   2.424       .  S
O65          C82   1.285       .  A
O65       Zr1463   2.411       .  S
O66          C81   1.294       .  A
O66         Zr71   2.456       .  S
O67          C80   1.294       .  A
O67         Zr70   2.444       .  S
O68          C77   1.297   1_655  A
O68         Zr74   2.463       .  S
O69          C78   1.293       .  A
O69        Zr770   2.451   1_445  S
Zr70        O384   2.457       .  S
Zr70       O1456   2.444   1_455  S
Zr70         O88   2.341       .  S
Zr70        O392   2.338       .  S
Zr70       O1791   2.343   1_455  S
Zr70       O1468   2.348   1_455  S
Zr71        O383   2.437       .  S
Zr71       O1457   2.448   1_455  S
Zr71         O75   2.340       .  S
Zr71       O1785   2.354   1_455  S
Zr71        O401   2.350       .  S
Zr71       O1478   2.352   1_455  S
Zr72        O388   2.443       .  S
Zr72        O755   2.449       .  S
Zr72         O76   2.339       .  S
Zr72       O1089   2.346       .  S
Zr72        O399   2.344       .  S
Zr72        O782   2.339       .  S
Zr73        O387   2.444       .  S
Zr73        O754   2.437       .  S
Zr73         O88   2.343       .  S
Zr73        O392   2.342       .  S
Zr73       O1097   2.342       .  S
Zr73        O771   2.333       .  S
Zr74       O1452   2.438       .  S
Zr74        O765   2.450       .  S
Zr74         O88   2.341   1_655  S
Zr74        O771   2.345   1_655  S
Zr74       O1468   2.331       .  S
Zr74       O2174   2.348       .  S
O75        Zr769   2.348       .  S
O75        Zr770   2.352   1_445  S
O76       Zr1462   2.349       .  S
O76       Zr1466   2.331       .  S
C77         C305   1.494       .  S
C78         C286   1.482       .  S
C79         C161   1.472       .  S
C80         C190   1.481       .  S
C81         C206   1.491       .  S
C82         C174   1.478       .  S
C83         C225   1.490       .  S
C84         C238   1.472       .  S
H85          O86   0.967       .  S
O86       Zr1463   2.354       .  S
O86        Zr768   2.347       .  S
O86       Zr2162   2.349   1_545  S
H87          O88   0.966       .  S
N89          C94   1.357       .  A
N89          C93   1.355       .  A
N89         H121   1.041       .  S
N90          C97   1.350       .  A
N90          C98   1.353       .  A
N91          C96   1.350       .  A
N91          C95   1.354       .  A
N91         H122   1.037       .  S
N92          C99   1.353       .  A
N92         C100   1.351       .  A
C93         C101   1.388   1_565  A
C93         C109   1.418       .  A
C94         C110   1.414       .  A
C94         C102   1.385   1_565  A
C95         C103   1.386       .  A
C95         C112   1.414       .  A
C96         C111   1.415       .  A
C96         C104   1.390       .  A
C97         C109   1.417       .  A
C97         C105   1.388       .  A
C98         C112   1.414       .  A
C98         C106   1.384       .  A
C99         C107   1.386       .  A
C99         C110   1.416       .  A
C100        C108   1.389       .  A
C100        C111   1.418       .  A
C101        C102   1.370       .  A
C101        H113   1.082       .  S
C102        H114   1.082       .  S
C103        C104   1.370       .  A
C103        H115   1.083       .  S
C104        H116   1.083       .  S
C105        C106   1.371       .  A
C105        H117   1.082       .  S
C106        H118   1.082       .  S
C107        C108   1.370       .  A
C107        H119   1.082       .  S
C108        H120   1.082       .  S
C109        C273   1.492       .  S
C110        C257   1.498       .  S
C111        C241   1.482       .  S
C112        C222   1.491       .  S
N123        C128   1.354       .  A
N123        C127   1.354       .  A
N123        H155   1.037       .  S
N124        C131   1.348       .  A
N124        C132   1.349       .  A
N125        C130   1.350       .  A
N125        C129   1.349       .  A
N125        H156   1.040       .  S
N126        C133   1.350       .  A
N126        C134   1.351       .  A
C127        C135   1.388       .  A
C127        C143   1.421       .  A
C128        C144   1.418       .  A
C128        C136   1.387       .  A
C129        C137   1.387       .  A
C129        C146   1.407       .  A
C130        C145   1.410       .  A
C130        C138   1.387       .  A
C131        C143   1.411       .  A
C131        C139   1.387       .  A
C132        C146   1.408       .  A
C132        C140   1.386       .  A
C133        C141   1.387       .  A
C133        C144   1.414       .  A
C134        C142   1.384       .  A
C134        C145   1.410       .  A
C135        C136   1.376       .  A
C135        H147   1.082       .  S
C136        H148   1.082       .  S
C137        C138   1.376       .  A
C137        H149   1.083       .  S
C138        H150   1.083       .  S
C139        C140   1.372       .  A
C139        H151   1.082       .  S
C140        H152   1.082       .  S
C141        C142   1.373       .  A
C141        H153   1.081       .  S
C142        H154   1.083       .  S
C143        C177   1.490       .  S
C144        C209   1.490       .  S
C145        C193   1.486       .  S
C146        C158   1.479       .  S
C157        C162   1.411       .  A
C157        C506   1.407       .  A
C157        H164   1.083       .  S
C158        C159   1.414       .  A
C158        C505   1.399       .  A
C159        C160   1.405       .  A
C159        C166   1.520       .  S
C160        C161   1.404       .  A
C160        H165   1.084       .  S
C161        C510   1.417       .  A
C162        C509   1.419       .  A
C162        C163   1.520       .  S
C163        F167   1.385       .  S
C163        F168   1.383       .  S
C163        F517   1.382       .  S
C166        F171   1.383       .  S
C166        F172   1.384       .  S
C166        F518   1.382       .  S
F169        C511   1.382       .  S
F170        C514   1.381       .  S
C173        C174   1.399       .  A
C173        C178   1.401       .  A
C173        H180   1.076       .  S
C174        C523   1.420       .  A
C175        C176   1.402       .  A
C175        C522   1.413   1_554  A
C175        C182   1.513       .  S
C176        C525   1.401   1_554  A
C176        H181   1.083       .  S
C177        C178   1.415       .  A
C177        C524   1.406       .  A
C178        C179   1.518       .  S
C179        F183   1.384       .  S
C179        F185   1.382       .  S
C179        F532   1.382       .  S
C182        F186   1.383       .  S
C182        F188   1.385       .  S
C182        F535   1.382       .  S
F184        C527   1.385       .  S
F187        C530   1.375       .  S
C189        C190   1.403       .  A
C189        C194   1.400       .  A
C189        H196   1.078       .  S
C190        C539   1.422       .  A
C191        C192   1.405       .  A
C191        C538   1.422   1_556  A
C191        C198   1.520       .  S
C192        C541   1.402   1_556  A
C192        H197   1.083       .  S
C193        C194   1.415       .  A
C193        C540   1.404       .  A
C194        C195   1.521       .  S
C195        F201   1.379       .  S
C195        F547   1.385       .  S
C195        F548   1.383       .  S
C198        F202   1.383       .  S
C198        F551   1.379       .  S
C198        F552   1.385       .  S
F199        C543   1.382       .  S
F200        C543   1.383       .  S
F203        C546   1.382       .  S
F204        C546   1.385       .  S
C205        C206   1.404       .  A
C205        C210   1.408       .  A
C205        H212   1.071       .  S
C206        C555   1.415       .  A
C207        C208   1.402       .  A
C207        C554   1.411       .  A
C207        C214   1.513       .  S
C208        C557   1.402       .  A
C208        H213   1.083       .  S
C209        C210   1.416       .  A
C209        C556   1.401       .  A
C210        C211   1.523       .  S
C211        F217   1.384       .  S
C211        F563   1.383       .  S
C211        F564   1.381       .  S
C214        F218   1.381       .  S
C214        F567   1.379       .  S
C214        F568   1.384       .  S
F215        C559   1.383       .  S
F216        C559   1.381       .  S
F219        C562   1.378       .  S
F220        C562   1.384       .  S
C221        C226   1.412       .  A
C221        C918   1.406       .  A
C221        H228   1.083       .  S
C222        C223   1.415       .  A
C222        C917   1.401   1_565  A
C223        C224   1.410       .  A
C223        C230   1.514       .  S
C224        C921   1.403       .  A
C224        H229   1.084       .  S
C225        C226   1.424       .  A
C225        C920   1.403       .  A
C226        C227   1.520       .  S
C227        F233   1.382       .  S
C227        F927   1.385       .  S
C227        F928   1.378       .  S
C230        F234   1.381       .  S
C230        F931   1.383       .  S
C230        F932   1.381       .  S
F231        C923   1.384       .  S
F232        C923   1.377       .  S
F235        C926   1.381       .  S
F236        C926   1.383       .  S
C237        C238   1.402       .  A
C237        C242   1.401       .  A
C237        H244   1.083       .  S
C238        C935   1.420       .  A
C239        C240   1.400       .  A
C239        C934   1.418       .  A
C239        C246   1.520       .  S
C240        C241   1.401       .  A
C240        H245   1.083       .  S
C241        C938   1.416   1_565  A
C242        C937   1.416       .  A
C242        C243   1.519       .  S
C243        F247   1.384       .  S
C243        F249   1.385       .  S
C243        F944   1.382       .  S
C246        F250   1.382       .  S
C246        F252   1.385       .  S
C246        F947   1.378       .  S
F248        C939   1.385       .  S
F251        C942   1.379       .  S
C253        C254   1.403   1_565  A
C253        C258   1.409       .  A
C253        H260   1.084       .  S
C254        C951   1.417       .  A
C255        C256   1.405       .  A
C255        C950   1.412       .  A
C255        C262   1.514       .  S
C256        C953   1.406       .  A
C256        H261   1.083       .  S
C257        C258   1.421       .  A
C257        C952   1.403   1_565  A
C258        C259   1.521       .  S
C259        F265   1.386       .  S
C259        F959   1.382       .  S
C259        F960   1.380       .  S
C262        F266   1.383       .  S
C262        F963   1.378       .  S
C262        F964   1.384       .  S
F263        C955   1.386       .  S
F264        C955   1.382       .  S
F267        C958   1.379       .  S
F268        C958   1.384       .  S
C269        C274   1.409       .  A
C269        C966   1.404       .  A
C269        H276   1.083       .  S
C270        C271   1.421       .  A
C270        C965   1.405   1_545  A
C271        C272   1.407       .  A
C271        C278   1.512       .  S
C272        C273   1.401   1_545  A
C272        H277   1.083       .  S
C273        C970   1.414       .  A
C274        C969   1.414       .  A
C274        C275   1.517       .  S
C275        F279   1.384       .  S
C275        F281   1.383       .  S
C275        F976   1.383       .  S
C278        F282   1.386       .  S
C278        F284   1.382       .  S
C278        F979   1.377       .  S
F280        C971   1.381       .  S
F283        C974   1.380       .  S
C285        C286   1.403       .  A
C285        C290   1.412       .  A
C285        H292   1.082       .  S
C286       C1679   1.414   1_455  A
C287        C288   1.408       .  A
C287       C1678   1.415       .  A
C287        C294   1.511       .  S
C288       C1681   1.403       .  A
C288        H293   1.083       .  S
C289        C290   1.418       .  A
C289       C1680   1.403   1_455  A
C290        C291   1.520       .  S
C291        F295   1.383       .  S
C291        F296   1.383       .  S
C291        F297   1.381       .  S
C294        F298   1.384       .  S
C294        F299   1.382       .  S
C294        F300   1.385       .  S
C301        C302   1.407       .  A
C301        C306   1.416       .  A
C301        H308   1.083       .  S
C302       C1695   1.416   1_455  A
C303        C304   1.407       .  A
C303       C1694   1.420       .  A
C303        C310   1.518       .  S
C304       C1697   1.405       .  A
C304        H309   1.085       .  S
C305        C306   1.425       .  A
C305       C1696   1.403   1_455  A
C306        C307   1.520       .  S
C307        F311   1.385       .  S
C307        F312   1.382       .  S
C307        F313   1.380       .  S
C310        F314   1.381       .  S
C310        F315   1.382       .  S
C310        F316   1.382       .  S
C317        C322   1.415       .  A
C317       C1710   1.406       .  A
C317        H324   1.083       .  S
C318        C319   1.416       .  A
C318       C1709   1.403   1_455  A
C319        C320   1.413       .  A
C319        C326   1.515       .  S
C320        C321   1.406       .  A
C320        H325   1.083       .  S
C321       C1714   1.422   1_455  A
C322       C1713   1.421       .  A
C322        C323   1.519       .  S
C323        F327   1.384       .  S
C323        F328   1.379       .  S
C323        F329   1.382       .  S
C326        F330   1.383       .  S
C326        F331   1.382       .  S
C326        F332   1.384       .  S
C333        C334   1.407       .  A
C333        C338   1.414       .  A
C333        H340   1.083       .  S
C334       C1727   1.416   1_455  A
C335        C336   1.405       .  A
C335       C1726   1.419       .  A
C335        C342   1.518       .  S
C336       C1729   1.401       .  A
C336        H341   1.079       .  S
C337        C338   1.417       .  A
C337       C1728   1.399   1_455  A
C338        C339   1.511       .  S
C339        F343   1.384       .  S
C339        F344   1.383       .  S
C339        F345   1.376       .  S
C342        F346   1.382       .  S
C342        F347   1.382       .  S
C342        F348   1.384       .  S
N349        C354   1.354   1_455  A
N349        C353   1.356   1_455  A
N349        H381   1.035       .  S
N350        C357   1.356       .  A
N350        C358   1.354       .  A
N351        C356   1.357       .  A
N351        C355   1.358       .  A
N351        H382   1.038       .  S
N352        C359   1.355       .  A
N352        C360   1.355       .  A
C353        C361   1.387       .  A
C353        C369   1.419       .  A
C354        C370   1.420       .  A
C354        C362   1.388       .  A
C355        C363   1.387   1_455  A
C355        C372   1.424       .  A
C356        C371   1.423       .  A
C356        C364   1.387   1_455  A
C357        C369   1.419   1_455  A
C357        C365   1.385       .  A
C358        C372   1.421       .  A
C358        C366   1.387       .  A
C359        C367   1.388       .  A
C359        C370   1.423   1_455  A
C360        C368   1.386       .  A
C360        C371   1.419       .  A
C361        C362   1.374       .  A
C361        H373   1.082       .  S
C362        H374   1.082       .  S
C363        C364   1.376       .  A
C363        H375   1.082       .  S
C364        H376   1.082       .  S
C365        C366   1.374       .  A
C365        H377   1.082       .  S
C366        H378   1.082       .  S
C367        C368   1.372       .  A
C367        H379   1.082       .  S
C368        H380   1.082       .  S
C369        C669   1.499       .  S
C370        C682   1.495       .  S
C371        C637   1.500       .  S
C372        C650   1.505       .  S
O383        C394   1.291       .  A
O384        C395   1.295       .  A
O385        C396   1.292       .  A
O385      Zr2479   2.444       .  S
O386        C397   1.291       .  A
O386      Zr1087   2.434       .  S
O387       C1093   1.292       .  A
O388       C1092   1.292       .  A
O389        C395   1.296       .  A
O389       Zr391   2.467       .  S
O390        C394   1.294   1_655  A
O390      Zr1087   2.446   1_655  S
Zr391      O2473   2.436   1_455  S
Zr391      O1082   2.444       .  S
Zr391      O1086   2.455       .  S
Zr391       O392   2.340       .  S
Zr391      O2481   2.352   1_455  S
Zr391      O1097   2.352       .  S
Zr391      O1791   2.341   1_455  S
O393      Zr2479   2.340       .  S
O393      Zr1463   2.344       .  S
O393       Zr768   2.338       .  S
C394        C685   1.482   1_455  S
C395        C666   1.491       .  S
C396        C618   1.477       .  S
C396       O1084   1.292       .  A
C397        C602   1.476       .  S
C397       O1083   1.293       .  A
H398        O399   0.965       .  S
O399      Zr1783   2.340       .  S
O399      Zr1462   2.343       .  S
H400        O401   0.966       .  S
O401      Zr1087   2.346       .  S
O401       Zr769   2.343       .  S
O402        C425   1.293       .  A
O402       Zr418   2.450   1_556  S
O403        C426   1.296       .  A
O403       Zr419   2.459   1_455  S
O404        C427   1.294       .  A
O404       Zr420   2.449       .  S
O405        C428   1.290       .  A
O405       Zr421   2.435   1_554  S
O406        C429   1.290       .  A
O406      Zr1117   2.431       .  S
O407        C430   1.294   1_554  A
O407      Zr1116   2.448       .  S
O408        C431   1.297       .  A
O408      Zr1814   2.465       .  S
O409        C432   1.288       .  A
O409       Zr422   2.422   1_455  S
O410        C431   1.291       .  A
O410       Zr420   2.438   1_556  S
O411        C432   1.295       .  A
O411       Zr421   2.454       .  S
O412        C427   1.291       .  A
O412      Zr1810   2.440       .  S
O413        C430   1.291       .  A
O413      Zr1811   2.435       .  S
O414        C429   1.291       .  A
O414       Zr419   2.437   1_455  S
O415        C428   1.295       .  A
O415       Zr418   2.453       .  S
O416        C425   1.297   1_655  A
O416       Zr422   2.462       .  S
O417        C426   1.292   1_655  A
O417      Zr1118   2.445   1_545  S
Zr418      O1804   2.433   1_455  S
Zr418      O1443   2.348   1_455  S
Zr418      O1816   2.349   1_454  S
Zr418       O436   2.343   1_554  S
Zr419      O1805   2.452       .  S
Zr419      O1437   2.345   1_556  S
Zr419       O423   2.343   1_655  S
Zr419      O1826   2.347       .  S
Zr420      O1103   2.453   1_554  S
Zr420       O741   2.346       .  S
Zr420       O424   2.341   1_554  S
Zr420      O1130   2.351   1_554  S
Zr421      O1102   2.437       .  S
Zr421       O749   2.348   1_556  S
Zr421      O1119   2.337       .  S
Zr421       O436   2.340       .  S
Zr422      O1800   2.447       .  S
Zr422      O1113   2.456       .  S
Zr422      O1119   2.349   1_655  S
Zr422      O1816   2.335       .  S
Zr422       O436   2.347   1_655  S
Zr422      O2522   2.347       .  S
O423      Zr1117   2.345       .  S
O423      Zr1118   2.344   1_445  S
O424      Zr1810   2.342   1_556  S
O424      Zr1814   2.338       .  S
C425        C653   1.494       .  S
C426        C634   1.483       .  S
C427        C509   1.482       .  S
C428        C538   1.487       .  S
C429        C554   1.465       .  S
C430        C522   1.473       .  S
C431        C573   1.493       .  S
C432        C586   1.478       .  S
H433        O434   0.965       .  S
O434      Zr1811   2.344       .  S
O434      Zr1116   2.349   1_556  S
O434      Zr2510   2.347   1_545  S
H435        O436   0.965       .  S
N437        C442   1.355       .  A
N437        C441   1.354       .  A
N437        H469   1.037       .  S
N438        C445   1.347       .  A
N438        C446   1.349       .  A
N439        C444   1.350   1_545  A
N439        C443   1.351   1_545  A
N439        H470   1.041       .  S
N440        C447   1.349       .  A
N440        C448   1.349       .  A
C441        C449   1.388       .  A
C441        C457   1.419       .  A
C442        C458   1.419       .  A
C442        C450   1.387       .  A
C443        C451   1.387       .  A
C443        C460   1.410   1_565  A
C444        C459   1.408   1_565  A
C444        C452   1.386       .  A
C445        C457   1.411       .  A
C445        C453   1.388       .  A
C446        C460   1.411       .  A
C446        C454   1.386       .  A
C447        C455   1.388       .  A
C447        C458   1.412       .  A
C448        C456   1.384       .  A
C448        C459   1.407       .  A
C449        C450   1.372       .  A
C449        H461   1.082       .  S
C450        H462   1.082       .  S
C451        C452   1.374       .  A
C451        H463   1.082       .  S
C452        H464   1.082       .  S
C453        C454   1.377       .  A
C453        H465   1.083       .  S
C454        H466   1.082       .  S
C455        C456   1.372       .  A
C455        H467   1.082       .  S
C456        H468   1.082       .  S
C457        C621   1.488       .  S
C458        C605   1.488       .  S
C459        C589   1.482       .  S
C460        C570   1.486   1_545  S
N471        C476   1.351       .  A
N471        C475   1.350       .  A
N471        H503   1.030       .  S
N472        C479   1.351       .  A
N472        C480   1.352       .  A
N473        C478   1.354       .  A
N473        C477   1.356       .  A
N473        H504   1.039   1_554  S
N474        C481   1.351       .  A
N474        C482   1.350       .  A
C475        C483   1.389       .  A
C475        C491   1.415       .  A
C476        C492   1.415   1_556  A
C476        C484   1.388       .  A
C477        C485   1.386       .  A
C477        C494   1.418       .  A
C478        C493   1.418       .  A
C478        C486   1.387       .  A
C479        C491   1.417       .  A
C479        C487   1.387       .  A
C480        C494   1.416   1_556  A
C480        C488   1.386       .  A
C481        C489   1.386   1_554  A
C481        C492   1.414       .  A
C482        C490   1.387   1_554  A
C482        C493   1.415       .  A
C483        C484   1.371       .  A
C483        H495   1.082       .  S
C484        H496   1.082       .  S
C485        C486   1.375       .  A
C485        H497   1.082       .  S
C486        H498   1.082       .  S
C487        C488   1.372       .  A
C487        H499   1.082       .  S
C488        H500   1.082       .  S
C489        C490   1.372       .  A
C489        H501   1.082       .  S
C490        H502   1.082       .  S
C491        C525   1.481       .  S
C492        C557   1.481   1_554  S
C493        C541   1.493       .  S
C494        C506   1.498       .  S
C505        C510   1.401       .  A
C505        H512   1.083       .  S
C506        C507   1.418   1_554  A
C507        C508   1.407       .  A
C507        C514   1.520       .  S
C508        C509   1.403   1_556  A
C508        H513   1.084       .  S
C510        C511   1.518       .  S
C511        F515   1.385       .  S
C511        F516   1.381       .  S
C514        F519   1.383       .  S
C514        F520   1.385       .  S
C521        C522   1.402       .  A
C521        C526   1.403       .  A
C521        H528   1.075       .  S
C523        C524   1.406       .  A
C523        C530   1.520       .  S
C524        H529   1.083       .  S
C525        C526   1.412       .  A
C526        C527   1.520       .  S
C527        F531   1.383       .  S
C527        F533   1.381       .  S
C530        F534   1.382       .  S
C530        F536   1.384       .  S
C537        C538   1.406       .  A
C537        C542   1.406       .  A
C537        H544   1.083       .  S
C539        C540   1.405       .  A
C539        C546   1.522       .  S
C540        H545   1.083       .  S
C541        C542   1.419       .  A
C542        C543   1.520       .  S
C543        F549   1.384       .  S
C546        F550   1.383       .  S
C553        C554   1.400   1_554  A
C553        C558   1.402       .  A
C553        H560   1.080       .  S
C555        C556   1.408       .  A
C555        C562   1.510       .  S
C556        H561   1.083       .  S
C557        C558   1.415   1_556  A
C558        C559   1.519       .  S
C559        F565   1.385       .  S
C562        F566   1.381       .  S
C569       C1266   1.402       .  A
C569        C574   1.406       .  A
C569        H576   1.083       .  S
C570       C1265   1.400   1_565  A
C570        C571   1.415       .  A
C571        C572   1.408       .  A
C571        C578   1.519       .  S
C572       C1269   1.408       .  A
C572        H577   1.085       .  S
C573       C1268   1.402       .  A
C573        C574   1.420       .  A
C574        C575   1.510       .  S
C575       F1275   1.385       .  S
C575       F1276   1.375       .  S
C575        F581   1.383       .  S
C578        F582   1.382       .  S
C578       F1279   1.383       .  S
C578       F1280   1.380       .  S
F579       C1271   1.384       .  S
F580       C1271   1.377       .  S
F583       C1274   1.381       .  S
F584       C1274   1.379       .  S
C585        C586   1.401       .  A
C585        C590   1.403       .  A
C585        H592   1.083       .  S
C586       C1283   1.420       .  A
C587       C1282   1.421       .  A
C587        C588   1.406       .  A
C587        C594   1.516       .  S
C588        C589   1.401   1_565  A
C588        H593   1.084       .  S
C589       C1286   1.411       .  A
C590       C1285   1.419       .  A
C590        C591   1.519       .  S
C591        F595   1.382       .  S
C591       F1292   1.383       .  S
C591        F597   1.385       .  S
C594        F598   1.378       .  S
C594       F1295   1.385       .  S
C594        F600   1.382       .  S
F596       C1287   1.384       .  S
F599       C1290   1.378       .  S
C601        C602   1.401   1_565  A
C601        C606   1.408       .  A
C601        H608   1.083       .  S
C602       C1299   1.414       .  A
C603       C1298   1.414       .  A
C603        C604   1.404       .  A
C603        C610   1.512       .  S
C604       C1301   1.402       .  A
C604        H609   1.083       .  S
C605       C1300   1.401       .  A
C605        C606   1.419   1_545  A
C606        C607   1.521       .  S
C607       F1307   1.383       .  S
C607       F1308   1.379       .  S
C607        F613   1.383       .  S
C610        F614   1.382       .  S
C610       F1311   1.379       .  S
C610       F1312   1.384       .  S
F611       C1303   1.385       .  S
F612       C1303   1.383       .  S
F615       C1306   1.374       .  S
F616       C1306   1.384       .  S
C617       C1314   1.405       .  A
C617        C622   1.407       .  A
C617        H624   1.082       .  S
C618       C1313   1.403   1_545  A
C618        C619   1.415       .  A
C619        C620   1.402       .  A
C619        C626   1.512       .  S
C620        C621   1.400       .  A
C620        H625   1.083       .  S
C621       C1318   1.420   1_545  A
C622       C1317   1.413       .  A
C622        C623   1.518       .  S
C623        F627   1.384       .  S
C623       F1324   1.382       .  S
C623        F629   1.383       .  S
C626        F630   1.382       .  S
C626       F1327   1.376       .  S
C626        F632   1.384       .  S
F628       C1319   1.383       .  S
F631       C1322   1.382       .  S
C633        C634   1.401       .  A
C633        C638   1.412       .  A
C633        H640   1.083       .  S
C634       C2027   1.412   1_455  A
C635       C2026   1.416       .  A
C635        C636   1.411       .  A
C635        C642   1.513       .  S
C636       C2029   1.403       .  A
C636        H641   1.083       .  S
C637       C2028   1.403   1_455  A
C637        C638   1.421       .  A
C638        C639   1.517       .  S
C639        F643   1.385       .  S
C639        F644   1.382       .  S
C639        F645   1.381       .  S
C642        F646   1.377       .  S
C642        F647   1.383       .  S
C642        F648   1.384       .  S
C649        C650   1.406       .  A
C649        C654   1.415       .  A
C649        H656   1.083       .  S
C650       C2043   1.419   1_455  A
C651       C2042   1.415       .  A
C651        C652   1.408       .  A
C651        C658   1.516       .  S
C652       C2045   1.404       .  A
C652        H657   1.084       .  S
C653       C2044   1.404   1_455  A
C653        C654   1.424       .  A
C654        C655   1.520       .  S
C655        F659   1.385       .  S
C655        F660   1.383       .  S
C655        F661   1.380       .  S
C658        F662   1.381       .  S
C658        F663   1.380       .  S
C658        F664   1.380       .  S
C665       C2058   1.403       .  A
C665        C670   1.411       .  A
C665        H672   1.080       .  S
C666       C2057   1.404   1_455  A
C666        C667   1.417       .  A
C667        C668   1.410       .  A
C667        C674   1.513       .  S
C668        C669   1.402   1_455  A
C668        H673   1.083       .  S
C669       C2062   1.419       .  A
C670       C2061   1.419       .  A
C670        C671   1.521       .  S
C671        F675   1.384       .  S
C671        F676   1.384       .  S
C671        F677   1.380       .  S
C674        F678   1.381       .  S
C674        F679   1.376       .  S
C674        F680   1.386       .  S
C681        C682   1.406   1_455  A
C681        C686   1.409       .  A
C681        H688   1.083       .  S
C682       C2075   1.416       .  A
C683       C2074   1.422       .  A
C683        C684   1.405       .  A
C683        C690   1.520       .  S
C684       C2077   1.402       .  A
C684        H689   1.083       .  S
C685       C2076   1.399       .  A
C685        C686   1.418   1_655  A
C686        C687   1.515       .  S
C687        F691   1.382       .  S
C687        F692   1.374       .  S
C687        F693   1.384       .  S
C690        F694   1.381       .  S
C690        F695   1.383       .  S
C690        F696   1.384       .  S
N697        C702   1.357   1_455  A
N697        C701   1.355   1_455  A
N697        H729   1.031       .  S
N698        C705   1.354       .  A
N698        C706   1.353       .  A
N699        C704   1.357       .  A
N699        C703   1.359       .  A
N699        H730   1.038       .  S
N700        C707   1.354       .  A
N700        C708   1.353       .  A
C701        C709   1.388       .  A
C701        C717   1.425   1_655  A
C702        C718   1.427       .  A
C702        C710   1.388       .  A
C703        C711   1.387   1_455  A
C703        C720   1.424       .  A
C704        C719   1.425       .  A
C704        C712   1.388   1_455  A
C705        C717   1.421       .  A
C705        C713   1.387       .  A
C706        C720   1.421       .  A
C706        C714   1.387       .  A
C707        C715   1.387       .  A
C707        C718   1.421   1_455  A
C708        C716   1.386       .  A
C708        C719   1.416       .  A
C709        C710   1.375       .  A
C709        H721   1.082       .  S
C710        H722   1.082       .  S
C711        C712   1.374       .  A
C711        H723   1.082       .  S
C712        H724   1.082       .  S
C713        C714   1.375       .  A
C713        H725   1.082       .  S
C714        H726   1.082       .  S
C715        C716   1.368       .  A
C715        H727   1.082       .  S
C716        H728   1.082       .  S
C717       C1017   1.498       .  S
C718       C1030   1.502       .  S
C719        C985   1.496       .  S
C720        C998   1.506   1_455  S
O731        C742   1.294       .  A
O731      Zr1115   2.454   1_554  S
O732        C743   1.296       .  A
O732      Zr1114   2.457       .  S
O733        C744   1.293       .  A
O733      Zr1435   2.452       .  S
O734        C745   1.294       .  A
O735      Zr1117   2.443   1_554  S
O736      Zr1116   2.458       .  S
O737        C743   1.293       .  A
O737       Zr739   2.449   1_565  S
O738        C742   1.296       .  A
Zr739      O1429   2.423   1_455  S
Zr739       O740   2.344   1_545  S
Zr739      O1437   2.345   1_455  S
Zr739      O2139   2.346   1_445  S
O740      Zr1114   2.340       .  S
O740      Zr1117   2.331   1_564  S
O741      Zr1435   2.344       .  S
O741      Zr2507   2.352   1_554  S
C742       C1033   1.489       .  S
C743       C1014   1.481       .  S
C744        C966   1.482       .  S
C745        C950   1.476       .  S
H746        O747   0.968       .  S
O747      Zr2131   2.345   1_565  S
O747      Zr2506   2.344       .  S
O747      Zr1116   2.343   1_565  S
H748        O749   0.966       .  S
O749      Zr1115   2.349   1_454  S
O750        C773   1.291       .  A
O750       Zr766   2.444       .  S
O751        C774   1.295       .  A
O751       Zr767   2.455   1_655  S
O752        C775   1.293       .  A
O752       Zr768   2.445   1_565  S
O753        C776   1.295       .  A
O753       Zr769   2.457   1_565  S
O754        C777   1.291       .  A
O755        C778   1.294       .  A
O756        C779   1.296       .  A
O756      Zr2162   2.458       .  S
O757        C780   1.287       .  A
O757       Zr770   2.419   1_455  S
O758        C779   1.289       .  A
O758       Zr768   2.429   1_565  S
O759        C780   1.294       .  A
O759       Zr769   2.440   1_565  S
O760        C775   1.291       .  A
O760      Zr2158   2.438       .  S
O761        C778   1.291       .  A
O761      Zr2159   2.436       .  S
O762        C777   1.290       .  A
O762       Zr767   2.435       .  S
O763        C776   1.293       .  A
O763       Zr766   2.446   1_455  S
O764        C773   1.295       .  A
O764       Zr770   2.456       .  S
O765        C774   1.293       .  A
Zr766      O1080   2.439   1_655  S
Zr766      O2152   2.445       .  S
Zr766      O1088   2.339   1_655  S
Zr766      O2487   2.342       .  S
Zr766      O2164   2.343       .  S
Zr766       O784   2.339   1_655  S
Zr767      O1079   2.453       .  S
Zr767      O2153   2.421   1_455  S
Zr767      O2481   2.347   1_455  S
Zr767      O1097   2.351       .  S
Zr767       O771   2.333       .  S
Zr767      O2174   2.352   1_455  S
Zr768      O1084   2.441       .  S
Zr768      O1095   2.348   1_545  S
Zr768       O772   2.342   1_545  S
Zr769      O1083   2.449       .  S
Zr769      O1088   2.336   1_545  S
Zr769       O784   2.352   1_545  S
Zr770      O2148   2.449       .  S
Zr770      O2164   2.333       .  S
Zr770       O784   2.349   1_655  S
Zr770      O1478   2.349   1_565  S
O772      Zr2158   2.340       .  S
O772      Zr2162   2.335       .  S
C773       C1001   1.492       .  S
C774        C982   1.482   1_655  S
C775        C857   1.477       .  S
C776        C886   1.494       .  S
C777        C902   1.470       .  S
C778        C870   1.474       .  S
C779        C921   1.479       .  S
C780        C934   1.467       .  S
H781        O782   0.965       .  S
O782      Zr2159   2.354       .  S
O782      Zr1466   2.336       .  S
H783        O784   0.967       .  S
N785        C790   1.359       .  A
N785        C789   1.355       .  A
N785        H817   1.037       .  S
N786        C793   1.352       .  A
N786        C794   1.355       .  A
N787        C792   1.352       .  A
N787        C791   1.357       .  A
N787        H818   1.039       .  S
N788        C795   1.352       .  A
N788        C796   1.350       .  A
C789        C797   1.389       .  A
C789        C805   1.421       .  A
C790        C806   1.419       .  A
C790        C798   1.386       .  A
C791        C799   1.386       .  A
C791        C808   1.417       .  A
C792        C807   1.415       .  A
C792        C800   1.388       .  A
C793        C805   1.418       .  A
C793        C801   1.387       .  A
C794        C808   1.420       .  A
C794        C802   1.385       .  A
C795        C803   1.387       .  A
C795        C806   1.416       .  A
C796        C804   1.387       .  A
C796        C807   1.414       .  A
C797        C798   1.369       .  A
C797        H809   1.082       .  S
C798        H810   1.082       .  S
C799        C800   1.373       .  A
C799        H811   1.082       .  S
C800        H812   1.083       .  S
C801        C802   1.371       .  A
C801        H813   1.082       .  S
C802        H814   1.081       .  S
C803        C804   1.366       .  A
C803        H815   1.082       .  S
C804        H816   1.082       .  S
C805        C969   1.491       .  S
C806        C953   1.498       .  S
C807        C937   1.484       .  S
C808        C918   1.504       .  S
N819        C824   1.352       .  A
N819        C823   1.352       .  A
N819        H851   1.035       .  S
N820        C827   1.352       .  A
N820        C828   1.352       .  A
N821        C826   1.352       .  A
N821        C825   1.351       .  A
N821        H852   1.037       .  S
N822        C829   1.350       .  A
N822        C830   1.351       .  A
C823        C831   1.389       .  A
C823        C839   1.417       .  A
C824        C840   1.415       .  A
C824        C832   1.387       .  A
C825        C833   1.387       .  A
C825        C842   1.413       .  A
C826        C841   1.415       .  A
C826        C834   1.387       .  A
C827        C839   1.417       .  A
C827        C835   1.386       .  A
C828        C842   1.417       .  A
C828        C836   1.386       .  A
C829        C837   1.387       .  A
C829        C840   1.412       .  A
C830        C838   1.385       .  A
C830        C841   1.412       .  A
C831        C832   1.373       .  A
C831        H843   1.082       .  S
C832        H844   1.082       .  S
C833        C834   1.376       .  A
C833        H845   1.082       .  S
C834        H846   1.083       .  S
C835        C836   1.374       .  A
C835        H847   1.082       .  S
C836        H848   1.082       .  S
C837        C838   1.372       .  A
C837        H849   1.081       .  S
C838        H850   1.082       .  S
C839        C873   1.488       .  S
C840        C905   1.484       .  S
C841        C889   1.491       .  S
C842        C854   1.488       .  S
C853       C1202   1.399       .  A
C853        C858   1.404       .  A
C853        H860   1.083       .  S
C854       C1201   1.400       .  A
C854        C855   1.416       .  A
C855        C856   1.408       .  A
C855        C862   1.518       .  S
C856        C857   1.404       .  A
C856        H861   1.084       .  S
C857       C1206   1.416       .  A
C858       C1205   1.415       .  A
C858        C859   1.515       .  S
C859        F863   1.383       .  S
C859        F864   1.382       .  S
C859       F1213   1.382       .  S
C862       F1214   1.382       .  S
C862        F867   1.383       .  S
C862        F868   1.384       .  S
F865       C1207   1.382       .  S
F866       C1210   1.382       .  S
C869        C870   1.404       .  A
C869        C874   1.410       .  A
C869        H876   1.081       .  S
C870       C1219   1.411       .  A
C871       C1218   1.415   1_554  A
C871        C872   1.400       .  A
C871        C878   1.517       .  S
C872       C1221   1.401   1_554  A
C872        H877   1.085       .  S
C873       C1220   1.401       .  A
C873        C874   1.415       .  A
C874        C875   1.518       .  S
C875        F879   1.384       .  S
C875       F1228   1.384       .  S
C875        F881   1.382       .  S
C878        F882   1.383       .  S
C878       F1231   1.380       .  S
C878        F884   1.383       .  S
F880       C1223   1.382       .  S
F883       C1226   1.384       .  S
C885        C886   1.412       .  A
C885        C890   1.412       .  A
C885        H892   1.080       .  S
C886       C1235   1.422       .  A
C887       C1234   1.422   1_556  A
C887        C888   1.405       .  A
C887        C894   1.522       .  S
C888       C1237   1.403   1_556  A
C888        H893   1.083       .  S
C889       C1236   1.399       .  A
C889        C890   1.416       .  A
C890        C891   1.523       .  S
C891       F1243   1.383       .  S
C891       F1244   1.380       .  S
C891        F897   1.385       .  S
C894        F898   1.382       .  S
C894       F1247   1.381       .  S
C894       F1248   1.384       .  S
F895       C1239   1.383       .  S
F896       C1239   1.381       .  S
F899       C1242   1.377       .  S
F900       C1242   1.385       .  S
C901        C902   1.397       .  A
C901        C906   1.401       .  A
C901        H908   1.079       .  S
C902       C1251   1.413       .  A
C903       C1250   1.410       .  A
C903        C904   1.401       .  A
C903        C910   1.505       .  S
C904       C1253   1.396   1_556  A
C904        H909   1.084       .  S
C905       C1252   1.402       .  A
C905        C906   1.416       .  A
C906        C907   1.520       .  S
C907       F1259   1.383       .  S
C907       F1260   1.380       .  S
C907        F913   1.384       .  S
C910        F914   1.382       .  S
C910       F1263   1.381       .  S
C910       F1264   1.381       .  S
F911       C1255   1.381       .  S
F912       C1255   1.385       .  S
F915       C1258   1.381       .  S
F916       C1258   1.383       .  S
C917        C922   1.404       .  A
C917        H924   1.083       .  S
C918        C919   1.419       .  A
C919        C920   1.406       .  A
C919        C926   1.515       .  S
C920        H925   1.085       .  S
C921        C922   1.415   1_565  A
C922        C923   1.511       .  S
C923        F929   1.383       .  S
C926        F930   1.382       .  S
C933        C934   1.401   1_545  A
C933        C938   1.400       .  A
C933        H940   1.079       .  S
C935        C936   1.402       .  A
C935        C942   1.519       .  S
C936        C937   1.401       .  A
C936        H941   1.083       .  S
C938        C939   1.522       .  S
C939        F943   1.380       .  S
C939        F945   1.383       .  S
C942        F946   1.383       .  S
C942        F948   1.384       .  S
C949        C950   1.402       .  A
C949        C954   1.407       .  A
C949        H956   1.083       .  S
C951        C952   1.405       .  A
C951        C958   1.516       .  S
C952        H957   1.083       .  S
C953        C954   1.420       .  A
C954        C955   1.521       .  S
C955        F961   1.380       .  S
C958        F962   1.381       .  S
C965        C970   1.406       .  A
C965        H972   1.081       .  S
C966        C967   1.416       .  A
C967        C968   1.405       .  A
C967        C974   1.509       .  S
C968        C969   1.401       .  A
C968        H973   1.083       .  S
C970        C971   1.520       .  S
C971        F975   1.385       .  S
C971        F977   1.383       .  S
C974        F978   1.381       .  S
C974        F980   1.386       .  S
C981        C982   1.404       .  A
C981        C986   1.412       .  A
C981        H988   1.081       .  S
C982       C2375   1.413   1_455  A
C983       C2374   1.417       .  A
C983        C984   1.408       .  A
C983        C990   1.516       .  S
C984       C2377   1.402       .  A
C984        H989   1.083       .  S
C985       C2376   1.402   1_455  A
C985        C986   1.419       .  A
C986        C987   1.521       .  S
C987        F991   1.384       .  S
C987        F992   1.383       .  S
C987        F993   1.380       .  S
C990        F994   1.381       .  S
C990        F995   1.382       .  S
C990        F996   1.384       .  S
C997        C998   1.406   1_455  A
C997       C1002   1.413       .  A
C997       H1004   1.083       .  S
C998       C2391   1.419       .  A
C999       C2390   1.416       .  A
C999       C1000   1.407       .  A
C999       C1006   1.518       .  S
C1000      C2393   1.405       .  A
C1000      H1005   1.085       .  S
C1001      C2392   1.404       .  A
C1001      C1002   1.423   1_655  A
C1002      C1003   1.519       .  S
C1003      F1007   1.384       .  S
C1003      F1008   1.383       .  S
C1003      F1009   1.380       .  S
C1006      F1010   1.382       .  S
C1006      F1011   1.382       .  S
C1006      F1012   1.379       .  S
C1013      C2406   1.403       .  A
C1013      C1018   1.409       .  A
C1013      H1020   1.081       .  S
C1014      C2405   1.403   1_455  A
C1014      C1015   1.414       .  A
C1015      C1016   1.409       .  A
C1015      C1022   1.515       .  S
C1016      C1017   1.404       .  A
C1016      H1021   1.083       .  S
C1017      C2410   1.419   1_455  A
C1018      C2409   1.420       .  A
C1018      C1019   1.521       .  S
C1019      F1023   1.384       .  S
C1019      F1024   1.382       .  S
C1019      F1025   1.382       .  S
C1022      F1026   1.382       .  S
C1022      F1027   1.380       .  S
C1022      F1028   1.384       .  S
C1029      C1030   1.404   1_455  A
C1029      C1034   1.409       .  A
C1029      H1036   1.083       .  S
C1030      C2423   1.423       .  A
C1031      C2422   1.416       .  A
C1031      C1032   1.408       .  A
C1031      C1038   1.517       .  S
C1032      C2425   1.400       .  A
C1032      H1037   1.076       .  S
C1033      C2424   1.401       .  A
C1033      C1034   1.419   1_655  A
C1034      C1035   1.513       .  S
C1035      F1039   1.385       .  S
C1035      F1040   1.382       .  S
C1035      F1041   1.376       .  S
C1038      F1042   1.382       .  S
C1038      F1043   1.382       .  S
C1038      F1044   1.384       .  S
N1045      C1050   1.355       .  A
N1045      C1049   1.354       .  A
N1045      H1077   1.036       .  S
N1046      C1053   1.353       .  A
N1046      C1054   1.353       .  A
N1047      C1052   1.354       .  A
N1047      C1051   1.355       .  A
N1047      H1078   1.037       .  S
N1048      C1055   1.352       .  A
N1048      C1056   1.352       .  A
C1049      C1057   1.387   1_455  A
C1049      C1065   1.418       .  A
C1050      C1066   1.419       .  A
C1050      C1058   1.388   1_455  A
C1051      C1059   1.387   1_455  A
C1051      C1068   1.419       .  A
C1052      C1067   1.418       .  A
C1052      C1060   1.387   1_455  A
C1053      C1065   1.416       .  A
C1053      C1061   1.386       .  A
C1054      C1068   1.419       .  A
C1054      C1062   1.387       .  A
C1055      C1063   1.387       .  A
C1055      C1066   1.418       .  A
C1056      C1064   1.386       .  A
C1056      C1067   1.413       .  A
C1057      C1058   1.374       .  A
C1057      H1069   1.082       .  S
C1058      H1070   1.082       .  S
C1059      C1060   1.374       .  A
C1059      H1071   1.082       .  S
C1060      H1072   1.082       .  S
C1061      C1062   1.373       .  A
C1061      H1073   1.082       .  S
C1062      H1074   1.082       .  S
C1063      C1064   1.371       .  A
C1063      H1075   1.082       .  S
C1064      H1076   1.082       .  S
C1065      C1365   1.491       .  S
C1066      C1378   1.493       .  S
C1067      C1333   1.490       .  S
C1068      C1346   1.498       .  S
O1079      C1090   1.294       .  A
O1080      C1091   1.292       .  A
O1081      C1092   1.294       .  A
O1081     Zr1783   2.451       .  S
O1082      C1093   1.293       .  A
O1085      C1091   1.292       .  A
O1085     Zr1087   2.447   1_565  S
O1086      C1090   1.295       .  A
Zr1087     O1777   2.437   1_455  S
Zr1087     O1088   2.337   1_545  S
Zr1087     O1785   2.347   1_455  S
Zr1087     O2487   2.341   1_445  S
O1089     Zr1783   2.345       .  S
O1089     Zr2159   2.353       .  S
C1090      C1381   1.488       .  S
C1091      C1362   1.475       .  S
C1092      C1314   1.476       .  S
C1093      C1298   1.479       .  S
H1094      O1095   0.968       .  S
O1095     Zr2479   2.344   1_565  S
O1095     Zr2158   2.343       .  S
H1096      O1097   0.966       .  S
O1098      C1121   1.295       .  A
O1098     Zr1114   2.458   1_656  S
O1099      C1122   1.297       .  A
O1099     Zr1115   2.464   1_455  S
O1100      C1123   1.292       .  A
O1100     Zr1116   2.437   1_565  S
O1101      C1124   1.290       .  A
O1101     Zr1117   2.438   1_564  S
O1102      C1125   1.291       .  A
O1103      C1126   1.295       .  A
O1104      C1127   1.293       .  A
O1104     Zr2510   2.440       .  S
O1105      C1128   1.293       .  A
O1105     Zr1118   2.448   1_455  S
O1106      C1127   1.292       .  A
O1106     Zr1116   2.442   1_566  S
O1107      C1128   1.292       .  A
O1107     Zr1117   2.434   1_565  S
O1108      C1123   1.291       .  A
O1108     Zr2506   2.439       .  S
O1109      C1126   1.287       .  A
O1109     Zr2507   2.414       .  S
O1110      C1125   1.293       .  A
O1110     Zr1115   2.450   1_455  S
O1111      C1124   1.293       .  A
O1111     Zr1114   2.442       .  S
O1112      C1121   1.291       .  A
O1112     Zr1118   2.430       .  S
O1113      C1122   1.294   1_655  A
Zr1114     O2500   2.425   1_455  S
Zr1114     O2139   2.346   1_455  S
Zr1114     O2512   2.340   1_454  S
Zr1114     O1132   2.341   1_554  S
Zr1115     O2501   2.444       .  S
Zr1115     O2133   2.358   1_556  S
Zr1115     O1119   2.341   1_655  S
Zr1115     O2522   2.353       .  S
Zr1116     O1120   2.343   1_544  S
Zr1117     O1132   2.342   1_545  S
Zr1118     O2496   2.463       .  S
Zr1118     O2512   2.336       .  S
Zr1118     O1132   2.352   1_655  S
Zr1118     O1826   2.349   1_565  S
O1120     Zr2506   2.342   1_556  S
O1120     Zr2510   2.340       .  S
C1121      C1349   1.484       .  S
C1122      C1330   1.490       .  S
C1123      C1205   1.474       .  S
C1124      C1234   1.487       .  S
C1125      C1250   1.474       .  S
C1126      C1218   1.464       .  S
C1127      C1269   1.487       .  S
C1128      C1282   1.479       .  S
H1129      O1130   0.965       .  S
O1130     Zr2507   2.357       .  S
O1130     Zr1814   2.344       .  S
H1131      O1132   0.967       .  S
N1133      C1138   1.356       .  A
N1133      C1137   1.353       .  A
N1133      H1165   1.039       .  S
N1134      C1141   1.350       .  A
N1134      C1142   1.352       .  A
N1135      C1140   1.354       .  A
N1135      C1139   1.356       .  A
N1135      H1166   1.040       .  S
N1136      C1143   1.352       .  A
N1136      C1144   1.351       .  A
C1137      C1145   1.389       .  A
C1137      C1153   1.415       .  A
C1138      C1154   1.412       .  A
C1138      C1146   1.385       .  A
C1139      C1147   1.386       .  A
C1139      C1156   1.416       .  A
C1140      C1155   1.415       .  A
C1140      C1148   1.387       .  A
C1141      C1153   1.413       .  A
C1141      C1149   1.386       .  A
C1142      C1156   1.416       .  A
C1142      C1150   1.386       .  A
C1143      C1151   1.386       .  A
C1143      C1154   1.415       .  A
C1144      C1152   1.387       .  A
C1144      C1155   1.414       .  A
C1145      C1146   1.368       .  A
C1145      H1157   1.082       .  S
C1146      H1158   1.082       .  S
C1147      C1148   1.373       .  A
C1147      H1159   1.082       .  S
C1148      H1160   1.083       .  S
C1149      C1150   1.369       .  A
C1149      H1161   1.082       .  S
C1150      H1162   1.081       .  S
C1151      C1152   1.370       .  A
C1151      H1163   1.082       .  S
C1152      H1164   1.082       .  S
C1153      C1317   1.484       .  S
C1154      C1301   1.493       .  S
C1155      C1285   1.488       .  S
C1156      C1266   1.500       .  S
N1167      C1172   1.351   1_556  A
N1167      C1171   1.350       .  A
N1167      H1199   1.037       .  S
N1168      C1175   1.349   1_554  A
N1168      C1176   1.349   1_554  A
N1169      C1174   1.351       .  A
N1169      C1173   1.350       .  A
N1169      H1200   1.039   1_554  S
N1170      C1177   1.348   1_554  A
N1170      C1178   1.350       .  A
C1171      C1179   1.387   1_556  A
C1171      C1187   1.411       .  A
C1172      C1188   1.411       .  A
C1172      C1180   1.387       .  A
C1173      C1181   1.387       .  A
C1173      C1190   1.409       .  A
C1174      C1189   1.412       .  A
C1174      C1182   1.387       .  A
C1175      C1187   1.409       .  A
C1175      C1183   1.386       .  A
C1176      C1190   1.410   1_556  A
C1176      C1184   1.386       .  A
C1177      C1185   1.388       .  A
C1177      C1188   1.413   1_556  A
C1178      C1186   1.385   1_554  A
C1178      C1189   1.411       .  A
C1179      C1180   1.372       .  A
C1179      H1191   1.082       .  S
C1180      H1192   1.082       .  S
C1181      C1182   1.376       .  A
C1181      H1193   1.082       .  S
C1182      H1194   1.082       .  S
C1183      C1184   1.373       .  A
C1183      H1195   1.083       .  S
C1184      H1196   1.082       .  S
C1185      C1186   1.372       .  A
C1185      H1197   1.081       .  S
C1186      H1198   1.082       .  S
C1187      C1221   1.477       .  S
C1188      C1253   1.480       .  S
C1189      C1237   1.489       .  S
C1190      C1202   1.481       .  S
C1201      C1206   1.406       .  A
C1201      H1208   1.083       .  S
C1202      C1203   1.415   1_554  A
C1203      C1204   1.406       .  A
C1203      C1210   1.520       .  S
C1204      C1205   1.403   1_556  A
C1204      H1209   1.083       .  S
C1206      C1207   1.515       .  S
C1207      F1211   1.383       .  S
C1207      F1212   1.384       .  S
C1210      F1215   1.383       .  S
C1210      F1216   1.384       .  S
C1217      C1218   1.399       .  A
C1217      C1222   1.400       .  A
C1217      H1224   1.070       .  S
C1219      C1220   1.402       .  A
C1219      C1226   1.513       .  S
C1220      H1225   1.083       .  S
C1221      C1222   1.412       .  A
C1222      C1223   1.520       .  S
C1223      F1227   1.385       .  S
C1223      F1229   1.381       .  S
C1226      F1230   1.383       .  S
C1226      F1232   1.383       .  S
C1233      C1234   1.406       .  A
C1233      C1238   1.405       .  A
C1233      H1240   1.083       .  S
C1235      C1236   1.403       .  A
C1235      C1242   1.518       .  S
C1236      H1241   1.083       .  S
C1237      C1238   1.419       .  A
C1238      C1239   1.521       .  S
C1239      F1245   1.383       .  S
C1242      F1246   1.382       .  S
C1249      C1250   1.401   1_554  A
C1249      C1254   1.405       .  A
C1249      H1256   1.077       .  S
C1251      C1252   1.406       .  A
C1251      C1258   1.512       .  S
C1252      H1257   1.083       .  S
C1253      C1254   1.416       .  A
C1254      C1255   1.520       .  S
C1255      F1261   1.383       .  S
C1258      F1262   1.383       .  S
C1265      C1270   1.404       .  A
C1265      H1272   1.083       .  S
C1266      C1267   1.418       .  A
C1267      C1268   1.409       .  A
C1267      C1274   1.512       .  S
C1268      H1273   1.084       .  S
C1269      C1270   1.423   1_565  A
C1270      C1271   1.518       .  S
C1271      F1277   1.383       .  S
C1274      F1278   1.381       .  S
C1281      C1282   1.403   1_545  A
C1281      C1286   1.401       .  A
C1281      H1288   1.078       .  S
C1283      C1284   1.405       .  A
C1283      C1290   1.520       .  S
C1284      C1285   1.402       .  A
C1284      H1289   1.083       .  S
C1286      C1287   1.520       .  S
C1287      F1291   1.381       .  S
C1287      F1293   1.384       .  S
C1290      F1294   1.382       .  S
C1290      F1296   1.385       .  S
C1297      C1298   1.403       .  A
C1297      C1302   1.409       .  A
C1297      H1304   1.084       .  S
C1299      C1300   1.403       .  A
C1299      C1306   1.510       .  S
C1300      H1305   1.083       .  S
C1301      C1302   1.419       .  A
C1302      C1303   1.520       .  S
C1303      F1309   1.382       .  S
C1306      F1310   1.383       .  S
C1313      C1318   1.409       .  A
C1313      H1320   1.084       .  S
C1314      C1315   1.418       .  A
C1315      C1316   1.399       .  A
C1315      C1322   1.507       .  S
C1316      C1317   1.396       .  A
C1316      H1321   1.085       .  S
C1318      C1319   1.521       .  S
C1319      F1323   1.384       .  S
C1319      F1325   1.380       .  S
C1322      F1326   1.375       .  S
C1322      F1328   1.384       .  S
C1329      C1330   1.406       .  A
C1329      C1334   1.413       .  A
C1329      H1336   1.080       .  S
C1330      C2723   1.416   1_455  A
C1331      C2722   1.415       .  A
C1331      C1332   1.406       .  A
C1331      C1338   1.514       .  S
C1332      C2725   1.402       .  A
C1332      H1337   1.083       .  S
C1333      C2724   1.398   1_455  A
C1333      C1334   1.413       .  A
C1334      C1335   1.517       .  S
C1335      F1339   1.377       .  S
C1335      F1340   1.384       .  S
C1335      F1341   1.381       .  S
C1338      F1342   1.383       .  S
C1338      F1343   1.381       .  S
C1338      F1344   1.385       .  S
C1345      C1346   1.406       .  A
C1345      C1350   1.411       .  A
C1345      H1352   1.083       .  S
C1346      C2739   1.419   1_455  A
C1347      C2738   1.417       .  A
C1347      C1348   1.401       .  A
C1347      C1354   1.516       .  S
C1348      C2741   1.403       .  A
C1348      H1353   1.085       .  S
C1349      C2740   1.404       .  A
C1349      C1350   1.419   1_655  A
C1350      C1351   1.519       .  S
C1351      F1355   1.384       .  S
C1351      F1356   1.382       .  S
C1351      F1357   1.380       .  S
C1354      F1358   1.381       .  S
C1354      F1359   1.384       .  S
C1354      F1360   1.383       .  S
C1361      C2754   1.399       .  A
C1361      C1366   1.406       .  A
C1361      H1368   1.081       .  S
C1362      C2753   1.399   1_455  A
C1362      C1363   1.414       .  A
C1363      C1364   1.407       .  A
C1363      C1370   1.513       .  S
C1364      C1365   1.402       .  A
C1364      H1369   1.083       .  S
C1365      C2758   1.417   1_455  A
C1366      C2757   1.418       .  A
C1366      C1367   1.520       .  S
C1367      F1371   1.383       .  S
C1367      F1372   1.382       .  S
C1367      F1373   1.381       .  S
C1370      F1374   1.381       .  S
C1370      F1375   1.379       .  S
C1370      F1376   1.384       .  S
C1377      C1378   1.403       .  A
C1377      C1382   1.408       .  A
C1377      H1384   1.083       .  S
C1378      C2771   1.419   1_455  A
C1379      C2770   1.416       .  A
C1379      C1380   1.404       .  A
C1379      C1386   1.517       .  S
C1380      C2773   1.401       .  A
C1380      H1385   1.072       .  S
C1381      C2772   1.403   1_455  A
C1381      C1382   1.417       .  A
C1382      C1383   1.514       .  S
C1383      F1387   1.385       .  S
C1383      F1388   1.382       .  S
C1383      F1389   1.377       .  S
C1386      F1390   1.383       .  S
C1386      F1391   1.382       .  S
C1386      F1392   1.385       .  S
N1393      C1398   1.355       .  A
N1393      C1397   1.355       .  A
N1393      H1425   1.040       .  S
N1394      C1401   1.351       .  A
N1394      C1402   1.351       .  A
N1395      C1400   1.354       .  A
N1395      C1399   1.357       .  A
N1395      H1426   1.040       .  S
N1396      C1403   1.354       .  A
N1396      C1404   1.353       .  A
C1397      C1405   1.387       .  A
C1397      C1413   1.421       .  A
C1398      C1414   1.420       .  A
C1398      C1406   1.387       .  A
C1399      C1407   1.385       .  A
C1399      C1416   1.419       .  A
C1400      C1415   1.420       .  A
C1400      C1408   1.388       .  A
C1401      C1413   1.414       .  A
C1401      C1409   1.387       .  A
C1402      C1416   1.414       .  A
C1402      C1410   1.386       .  A
C1403      C1411   1.387       .  A
C1403      C1414   1.420       .  A
C1404      C1412   1.387       .  A
C1404      C1415   1.418       .  A
C1405      C1406   1.379       .  A
C1405      H1417   1.083       .  S
C1406      H1418   1.082       .  S
C1407      C1408   1.377       .  A
C1407      H1419   1.082       .  S
C1408      H1420   1.082       .  S
C1409      C1410   1.378       .  A
C1409      H1421   1.082       .  S
C1410      H1422   1.082       .  S
C1411      C1412   1.374       .  A
C1411      H1423   1.082       .  S
C1412      H1424   1.082       .  S
C1413      C1713   1.497       .  S
C1414      C1726   1.502       .  S
C1415      C1681   1.496       .  S
C1416      C1694   1.503       .  S
O1427      C1438   1.294       .  A
O1427     Zr1811   2.452   1_554  S
O1428      C1439   1.294       .  A
O1428     Zr1810   2.451       .  S
O1429      C1440   1.288       .  A
O1430      C1441   1.291       .  A
O1430     Zr2131   2.436       .  S
O1431      C2137   1.294       .  A
O1431     Zr1813   2.454   1_554  S
O1432      C2136   1.295       .  A
O1432     Zr1812   2.457       .  S
O1433      C1439   1.294       .  A
O1433     Zr1435   2.449       .  S
O1434      C1438   1.296       .  A
O1434     Zr2131   2.457       .  S
Zr1435     O2126   2.444       .  S
Zr1435     O2130   2.459       .  S
Zr1435     O1436   2.350       .  S
Zr1435     O2141   2.351       .  S
O1436     Zr1810   2.338       .  S
O1436     Zr1813   2.345   1_554  S
O1437     Zr2508   2.336       .  S
C1438      C1729   1.493       .  S
C1439      C1710   1.489       .  S
C1440      C1662   1.474       .  S
C1440      O2128   1.295       .  A
C1441      C1646   1.471       .  S
C1441      O2127   1.291       .  A
H1442      O1443   0.965       .  S
O1443     Zr1812   2.351       .  S
H1444      O1445   0.966       .  S
O1445     Zr2131   2.354       .  S
O1445     Zr1811   2.350   1_554  S
O1445     Zr2509   2.346   1_554  S
O1446      C1469   1.292       .  A
O1446     Zr1462   2.445       .  S
O1447      C1470   1.295       .  A
O1447     Zr1463   2.454       .  S
O1448      C1471   1.293       .  A
O1448     Zr1464   2.437       .  S
O1449      C1472   1.287       .  A
O1449     Zr1465   2.419       .  S
O1450      C1473   1.294       .  A
O1450     Zr2161   2.454       .  S
O1451      C1474   1.297       .  A
O1451     Zr2160   2.466       .  S
O1452      C1475   1.292       .  A
O1453      C1476   1.290       .  A
O1453     Zr1466   2.434       .  S
O1454      C1475   1.292       .  A
O1454     Zr1464   2.444       .  S
O1455      C1476   1.298       .  A
O1455     Zr1465   2.465       .  S
O1456      C1471   1.293       .  A
O1457      C1474   1.293       .  A
O1458      C1473   1.290       .  A
O1458     Zr1463   2.437       .  S
O1459      C1472   1.297       .  A
O1459     Zr1462   2.461       .  S
O1460      C1469   1.296       .  A
O1460     Zr1466   2.455       .  S
O1461      C1470   1.295       .  A
O1461     Zr2162   2.459   1_545  S
Zr1462     O1776   2.461       .  S
Zr1462     O1784   2.332       .  S
Zr1462     O1480   2.333       .  S
Zr1463     O1775   2.452       .  S
Zr1463     O1793   2.342       .  S
Zr1463     O1467   2.337       .  S
Zr1464     O1780   2.440       .  S
Zr1464     O2147   2.486       .  S
Zr1464     O2481   2.339       .  S
Zr1464     O1791   2.355       .  S
Zr1464     O1468   2.349       .  S
Zr1464     O2174   2.340       .  S
Zr1465     O1779   2.441       .  S
Zr1465     O2146   2.422       .  S
Zr1465     O1784   2.347       .  S
Zr1465     O2489   2.353       .  S
Zr1465     O2163   2.337       .  S
Zr1465     O1480   2.334       .  S
Zr1466     O2157   2.452       .  S
Zr1466     O2163   2.356       .  S
Zr1466     O1480   2.350       .  S
O1467     Zr2161   2.338       .  S
O1467     Zr2162   2.356   1_545  S
C1469      C1697   1.495       .  S
C1470      C1678   1.486       .  S
C1471      C1553   1.478       .  S
C1472      C1582   1.486       .  S
C1473      C1598   1.477       .  S
C1474      C1566   1.484       .  S
C1475      C1617   1.483       .  S
C1476      C1630   1.488       .  S
H1477      O1478   0.968       .  S
O1478     Zr2160   2.353       .  S
H1479      O1480   0.965       .  S
N1481      C1486   1.354       .  A
N1481      C1485   1.354       .  A
N1481      H1513   1.038       .  S
N1482      C1489   1.349       .  A
N1482      C1490   1.352       .  A
N1483      C1488   1.354       .  A
N1483      C1487   1.355       .  A
N1483      H1514   1.041   1_565  S
N1484      C1491   1.352       .  A
N1484      C1492   1.353       .  A
C1485      C1493   1.389   1_565  A
C1485      C1501   1.416       .  A
C1486      C1502   1.414       .  A
C1486      C1494   1.387   1_565  A
C1487      C1495   1.386       .  A
C1487      C1504   1.415       .  A
C1488      C1503   1.415       .  A
C1488      C1496   1.387       .  A
C1489      C1501   1.415       .  A
C1489      C1497   1.388       .  A
C1490      C1504   1.413       .  A
C1490      C1498   1.385       .  A
C1491      C1499   1.387   1_565  A
C1491      C1502   1.418       .  A
C1492      C1500   1.386   1_565  A
C1492      C1503   1.418       .  A
C1493      C1494   1.370       .  A
C1493      H1505   1.083       .  S
C1494      H1506   1.083       .  S
C1495      C1496   1.374       .  A
C1495      H1507   1.082       .  S
C1496      H1508   1.082       .  S
C1497      C1498   1.368       .  A
C1497      H1509   1.082       .  S
C1498      H1510   1.081       .  S
C1499      C1500   1.373       .  A
C1499      H1511   1.082       .  S
C1500      H1512   1.082       .  S
C1501      C1665   1.485       .  S
C1502      C1649   1.491       .  S
C1503      C1633   1.497       .  S
C1504      C1614   1.496       .  S
N1515      C1520   1.353       .  A
N1515      C1519   1.355       .  A
N1515      H1547   1.036       .  S
N1516      C1523   1.352       .  A
N1516      C1524   1.351       .  A
N1517      C1522   1.352       .  A
N1517      C1521   1.351       .  A
N1517      H1548   1.039       .  S
N1518      C1525   1.352       .  A
N1518      C1526   1.354       .  A
C1519      C1527   1.387       .  A
C1519      C1535   1.419       .  A
C1520      C1536   1.417       .  A
C1520      C1528   1.387       .  A
C1521      C1529   1.388       .  A
C1521      C1538   1.414       .  A
C1522      C1537   1.413       .  A
C1522      C1530   1.386       .  A
C1523      C1535   1.415       .  A
C1523      C1531   1.386       .  A
C1524      C1538   1.415       .  A
C1524      C1532   1.387       .  A
C1525      C1533   1.386       .  A
C1525      C1536   1.415       .  A
C1526      C1534   1.386       .  A
C1526      C1537   1.416       .  A
C1527      C1528   1.373       .  A
C1527      H1539   1.082       .  S
C1528      H1540   1.082       .  S
C1529      C1530   1.377       .  A
C1529      H1541   1.083       .  S
C1530      H1542   1.083       .  S
C1531      C1532   1.373       .  A
C1531      H1543   1.082       .  S
C1532      H1544   1.082       .  S
C1533      C1534   1.374       .  A
C1533      H1545   1.082       .  S
C1534      H1546   1.082       .  S
C1535      C1569   1.493       .  S
C1536      C1601   1.488       .  S
C1537      C1585   1.494       .  S
C1538      C1550   1.486       .  S
C1549      C1898   1.400   1_554  A
C1549      C1554   1.405       .  A
C1549      H1556   1.083       .  S
C1550      C1897   1.400       .  A
C1550      C1551   1.416       .  A
C1551      C1552   1.405       .  A
C1551      C1558   1.519       .  S
C1552      C1553   1.403       .  A
C1552      H1557   1.084       .  S
C1553      C1902   1.418       .  A
C1554      C1901   1.418       .  A
C1554      C1555   1.515       .  S
C1555      F1559   1.384       .  S
C1555      F1560   1.379       .  S
C1555      F1909   1.382       .  S
C1558      F1910   1.382       .  S
C1558      F1563   1.383       .  S
C1558      F1564   1.385       .  S
F1561      C1903   1.382       .  S
F1562      C1906   1.382       .  S
C1565      C1566   1.406       .  A
C1565      C1570   1.410       .  A
C1565      H1572   1.076       .  S
C1566      C1915   1.420       .  A
C1567      C1914   1.413   1_554  A
C1567      C1568   1.406       .  A
C1567      C1574   1.511       .  S
C1568      C1917   1.402   1_554  A
C1568      H1573   1.083       .  S
C1569      C1916   1.400       .  A
C1569      C1570   1.414       .  A
C1570      C1571   1.518       .  S
C1571      F1575   1.383       .  S
C1571      F1924   1.382       .  S
C1571      F1577   1.385       .  S
C1574      F1578   1.383       .  S
C1574      F1927   1.383       .  S
C1574      F1580   1.385       .  S
F1576      C1919   1.382       .  S
F1579      C1922   1.380       .  S
C1581      C1582   1.403       .  A
C1581      C1586   1.403       .  A
C1581      H1588   1.083       .  S
C1582      C1931   1.424       .  A
C1583      C1930   1.424       .  A
C1583      C1584   1.406       .  A
C1583      C1590   1.520       .  S
C1584      C1933   1.402       .  A
C1584      H1589   1.083       .  S
C1585      C1932   1.405       .  A
C1585      C1586   1.417       .  A
C1586      C1587   1.516       .  S
C1587      F1939   1.385       .  S
C1587      F1940   1.382       .  S
C1587      F1593   1.382       .  S
C1590      F1594   1.383       .  S
C1590      F1943   1.378       .  S
C1590      F1944   1.385       .  S
F1591      C1935   1.382       .  S
F1592      C1935   1.381       .  S
F1595      C1938   1.382       .  S
F1596      C1938   1.386       .  S
C1597      C1598   1.403       .  A
C1597      C1602   1.408       .  A
C1597      H1604   1.081       .  S
C1598      C1947   1.413       .  A
C1599      C1946   1.413       .  A
C1599      C1600   1.404       .  A
C1599      C1606   1.510       .  S
C1600      C1949   1.400       .  A
C1600      H1605   1.083       .  S
C1601      C1948   1.400       .  A
C1601      C1602   1.416       .  A
C1602      C1603   1.518       .  S
C1603      F1955   1.383       .  S
C1603      F1956   1.382       .  S
C1603      F1609   1.385       .  S
C1606      F1610   1.382       .  S
C1606      F1959   1.383       .  S
C1606      F1960   1.382       .  S
F1607      C1951   1.383       .  S
F1608      C1951   1.381       .  S
F1611      C1954   1.382       .  S
F1612      C1954   1.383       .  S
C1613      C2310   1.404       .  A
C1613      C1618   1.408       .  A
C1613      H1620   1.083       .  S
C1614      C2309   1.402   1_565  A
C1614      C1615   1.418       .  A
C1615      C1616   1.411       .  A
C1615      C1622   1.518       .  S
C1616      C2313   1.407       .  A
C1616      H1621   1.084       .  S
C1617      C2312   1.404       .  A
C1617      C1618   1.416       .  A
C1618      C1619   1.515       .  S
C1619      F2319   1.383       .  S
C1619      F2320   1.380       .  S
C1619      F1625   1.383       .  S
C1622      F1626   1.382       .  S
C1622      F2323   1.382       .  S
C1622      F2324   1.381       .  S
F1623      C2315   1.384       .  S
F1624      C2315   1.379       .  S
F1627      C2318   1.381       .  S
F1628      C2318   1.382       .  S
C1629      C1630   1.401       .  A
C1629      C1634   1.404       .  A
C1629      H1636   1.074       .  S
C1630      C2327   1.422       .  A
C1631      C2326   1.420       .  A
C1631      C1632   1.409       .  A
C1631      C1638   1.520       .  S
C1632      C1633   1.405       .  A
C1632      H1637   1.083       .  S
C1633      C2330   1.420   1_565  A
C1634      C2329   1.414       .  A
C1634      C1635   1.521       .  S
C1635      F1639   1.379       .  S
C1635      F2336   1.383       .  S
C1635      F1641   1.381       .  S
C1638      F1642   1.382       .  S
C1638      F2339   1.381       .  S
C1638      F1644   1.384       .  S
F1640      C2331   1.385       .  S
F1643      C2334   1.380       .  S
C1645      C1646   1.401   1_565  A
C1645      C1650   1.406       .  A
C1645      H1652   1.083       .  S
C1646      C2343   1.413       .  A
C1647      C2342   1.417       .  A
C1647      C1648   1.406       .  A
C1647      C1654   1.511       .  S
C1648      C2345   1.402       .  A
C1648      H1653   1.083       .  S
C1649      C2344   1.403   1_565  A
C1649      C1650   1.420       .  A
C1650      C1651   1.520       .  S
C1651      F2351   1.383       .  S
C1651      F2352   1.381       .  S
C1651      F1657   1.385       .  S
C1654      F1658   1.373       .  S
C1654      F2355   1.381       .  S
C1654      F2356   1.385       .  S
F1655      C2347   1.380       .  S
F1656      C2347   1.383       .  S
F1659      C2350   1.379       .  S
F1660      C2350   1.384       .  S
C1661      C2358   1.406       .  A
C1661      C1666   1.411       .  A
C1661      H1668   1.079       .  S
C1662      C2357   1.402   1_545  A
C1662      C1663   1.416       .  A
C1663      C1664   1.400       .  A
C1663      C1670   1.509       .  S
C1664      C1665   1.399   1_545  A
C1664      H1669   1.083       .  S
C1665      C2362   1.416       .  A
C1666      C2361   1.414       .  A
C1666      C1667   1.517       .  S
C1667      F1671   1.384       .  S
C1667      F2368   1.381       .  S
C1667      F1673   1.382       .  S
C1670      F1674   1.374       .  S
C1670      F2371   1.383       .  S
C1670      F1676   1.385       .  S
F1672      C2363   1.380       .  S
F1675      C2366   1.382       .  S
C1677      C1678   1.403       .  A
C1677      C1682   1.412       .  A
C1677      H1684   1.082       .  S
C1679      C1680   1.408       .  A
C1679      C1686   1.513       .  S
C1680      H1685   1.083       .  S
C1681      C1682   1.417       .  A
C1682      C1683   1.518       .  S
C1683      F1687   1.382       .  S
C1683      F1688   1.383       .  S
C1683      F1689   1.380       .  S
C1686      F1690   1.382       .  S
C1686      F1691   1.383       .  S
C1686      F1692   1.384       .  S
C1693      C1694   1.405       .  A
C1693      C1698   1.413       .  A
C1693      H1700   1.083       .  S
C1695      C1696   1.406       .  A
C1695      C1702   1.515       .  S
C1696      H1701   1.085       .  S
C1697      C1698   1.425       .  A
C1698      C1699   1.521       .  S
C1699      F1703   1.384       .  S
C1699      F1704   1.383       .  S
C1699      F1705   1.382       .  S
C1702      F1706   1.382       .  S
C1702      F1707   1.381       .  S
C1702      F1708   1.381       .  S
C1709      C1714   1.411       .  A
C1709      H1716   1.083       .  S
C1710      C1711   1.417       .  A
C1711      C1712   1.404       .  A
C1711      C1718   1.511       .  S
C1712      C1713   1.399       .  A
C1712      H1717   1.083       .  S
C1714      C1715   1.519       .  S
C1715      F1719   1.381       .  S
C1715      F1720   1.381       .  S
C1715      F1721   1.382       .  S
C1718      F1722   1.384       .  S
C1718      F1723   1.383       .  S
C1718      F1724   1.382       .  S
C1725      C1726   1.407       .  A
C1725      C1730   1.415       .  A
C1725      H1732   1.083       .  S
C1727      C1728   1.404       .  A
C1727      C1734   1.518       .  S
C1728      H1733   1.070       .  S
C1729      C1730   1.421       .  A
C1730      C1731   1.517       .  S
C1731      F1735   1.384       .  S
C1731      F1736   1.383       .  S
C1731      F1737   1.381       .  S
C1734      F1738   1.383       .  S
C1734      F1739   1.381       .  S
C1734      F1740   1.385       .  S
N1741      C1746   1.357       .  A
N1741      C1745   1.357       .  A
N1741      H1773   1.035       .  S
N1742      C1749   1.354       .  A
N1742      C1750   1.354       .  A
N1743      C1748   1.355       .  A
N1743      C1747   1.355       .  A
N1743      H1774   1.038       .  S
N1744      C1751   1.354       .  A
N1744      C1752   1.354       .  A
C1745      C1753   1.389       .  A
C1745      C1761   1.425       .  A
C1746      C1762   1.424       .  A
C1746      C1754   1.387       .  A
C1747      C1755   1.388       .  A
C1747      C1764   1.420       .  A
C1748      C1763   1.416       .  A
C1748      C1756   1.386       .  A
C1749      C1761   1.421       .  A
C1749      C1757   1.387       .  A
C1750      C1764   1.421       .  A
C1750      C1758   1.387       .  A
C1751      C1759   1.388       .  A
C1751      C1762   1.421       .  A
C1752      C1760   1.384       .  A
C1752      C1763   1.415       .  A
C1753      C1754   1.375       .  A
C1753      H1765   1.082       .  S
C1754      H1766   1.082       .  S
C1755      C1756   1.377       .  A
C1755      H1767   1.082       .  S
C1756      H1768   1.082       .  S
C1757      C1758   1.374       .  A
C1757      H1769   1.082       .  S
C1758      H1770   1.082       .  S
C1759      C1760   1.370       .  A
C1759      H1771   1.082       .  S
C1760      H1772   1.082       .  S
C1761      C2061   1.500       .  S
C1762      C2074   1.503       .  S
C1763      C2029   1.497       .  S
C1764      C2042   1.498       .  S
O1775      C1786   1.293       .  A
O1776      C1787   1.296       .  A
O1777      C1788   1.291       .  A
O1778      C1789   1.294       .  A
O1778     Zr2479   2.450       .  S
O1779      C2485   1.292       .  A
O1780      C2484   1.292       .  A
O1781      C1787   1.293       .  A
O1781     Zr1783   2.446       .  S
O1782      C1786   1.293       .  A
O1782     Zr2479   2.441       .  S
Zr1783     O2474   2.440       .  S
Zr1783     O2478   2.449       .  S
Zr1783     O1784   2.353       .  S
Zr1783     O2489   2.352       .  S
O1785     Zr2160   2.343       .  S
C1786      C2077   1.487       .  S
C1787      C2058   1.484       .  S
C1788      C2010   1.488   1_545  S
C1788      O2476   1.298       .  A
C1789      C1994   1.480   1_545  S
C1789      O2475   1.291   1_545  A
H1790      O1791   0.965       .  S
H1792      O1793   0.966       .  S
O1793     Zr2479   2.345       .  S
O1793     Zr2161   2.342       .  S
O1794      C1817   1.292       .  A
O1794     Zr1810   2.444   1_556  S
O1795      C1818   1.298       .  A
O1795     Zr1811   2.470       .  S
O1796      C1819   1.295       .  A
O1796     Zr1812   2.452       .  S
O1797      C1820   1.286       .  A
O1797     Zr1813   2.421       .  S
O1798      C1821   1.292       .  A
O1798     Zr2509   2.441       .  S
O1799      C1822   1.293       .  A
O1799     Zr2508   2.446   1_556  S
O1800      C1823   1.293       .  A
O1801      C1824   1.292       .  A
O1801     Zr1814   2.441       .  S
O1802      C1823   1.292       .  A
O1802     Zr1812   2.441   1_556  S
O1803      C1824   1.295       .  A
O1803     Zr1813   2.451       .  S
O1804      C1819   1.290       .  A
O1805      C1822   1.294       .  A
O1806      C1821   1.291       .  A
O1806     Zr1811   2.436       .  S
O1807      C1820   1.296   1_554  A
O1807     Zr1810   2.457       .  S
O1808      C1817   1.297       .  A
O1808     Zr1814   2.460       .  S
O1809      C1818   1.293       .  A
O1809     Zr2510   2.448   1_545  S
Zr1810     O1828   2.342   1_554  S
Zr1811     O1815   2.339       .  S
Zr1812     O2495   2.468   1_554  S
Zr1812     O2133   2.346       .  S
Zr1812     O1816   2.347   1_554  S
Zr1812     O2522   2.351   1_554  S
Zr1813     O2494   2.441       .  S
Zr1813     O2141   2.343   1_556  S
Zr1813     O2511   2.340       .  S
Zr1813     O1828   2.348       .  S
Zr1814     O2505   2.463       .  S
Zr1814     O2511   2.354       .  S
Zr1814     O1828   2.348       .  S
O1815     Zr2509   2.338       .  S
O1815     Zr2510   2.343   1_545  S
C1817      C2045   1.492       .  S
C1818      C2026   1.491       .  S
C1819      C1901   1.478       .  S
C1820      C1930   1.483       .  S
C1821      C1946   1.473       .  S
C1822      C1914   1.480       .  S
C1823      C1965   1.482       .  S
C1824      C1978   1.486       .  S
H1825      O1826   0.966       .  S
O1826     Zr2508   2.348   1_556  S
H1827      O1828   0.965       .  S
N1829      C1834   1.358       .  A
N1829      C1833   1.357       .  A
N1829      H1861   1.038       .  S
N1830      C1837   1.351       .  A
N1830      C1838   1.352       .  A
N1831      C1836   1.353       .  A
N1831      C1835   1.355       .  A
N1831      H1862   1.039       .  S
N1832      C1839   1.353       .  A
N1832      C1840   1.353       .  A
C1833      C1841   1.388       .  A
C1833      C1849   1.421       .  A
C1834      C1850   1.419       .  A
C1834      C1842   1.386       .  A
C1835      C1843   1.387       .  A
C1835      C1852   1.415       .  A
C1836      C1851   1.415       .  A
C1836      C1844   1.387       .  A
C1837      C1849   1.416       .  A
C1837      C1845   1.387       .  A
C1838      C1852   1.415       .  A
C1838      C1846   1.386       .  A
C1839      C1847   1.387       .  A
C1839      C1850   1.419       .  A
C1840      C1848   1.387       .  A
C1840      C1851   1.418       .  A
C1841      C1842   1.371       .  A
C1841      H1853   1.082   1_565  S
C1842      H1854   1.082   1_565  S
C1843      C1844   1.373       .  A
C1843      H1855   1.083       .  S
C1844      H1856   1.083       .  S
C1845      C1846   1.370       .  A
C1845      H1857   1.082       .  S
C1846      H1858   1.082       .  S
C1847      C1848   1.369       .  A
C1847      H1859   1.082       .  S
C1848      H1860   1.081       .  S
C1849      C2013   1.493       .  S
C1850      C1997   1.499       .  S
C1851      C1981   1.492       .  S
C1852      C1962   1.492       .  S
N1863      C1868   1.354       .  A
N1863      C1867   1.354       .  A
N1863      H1895   1.030       .  S
N1864      C1871   1.349       .  A
N1864      C1872   1.349       .  A
N1865      C1870   1.351   1_556  A
N1865      C1869   1.352   1_556  A
N1865      H1896   1.041       .  S
N1866      C1873   1.348       .  A
N1866      C1874   1.348       .  A
C1867      C1875   1.388       .  A
C1867      C1883   1.421       .  A
C1868      C1884   1.421       .  A
C1868      C1876   1.388       .  A
C1869      C1877   1.387       .  A
C1869      C1886   1.410   1_554  A
C1870      C1885   1.410   1_554  A
C1870      C1878   1.387       .  A
C1871      C1883   1.417       .  A
C1871      C1879   1.388       .  A
C1872      C1886   1.411       .  A
C1872      C1880   1.385       .  A
C1873      C1881   1.388       .  A
C1873      C1884   1.415       .  A
C1874      C1882   1.386       .  A
C1874      C1885   1.411       .  A
C1875      C1876   1.374       .  A
C1875      H1887   1.082       .  S
C1876      H1888   1.082       .  S
C1877      C1878   1.371       .  A
C1877      H1889   1.082       .  S
C1878      H1890   1.083       .  S
C1879      C1880   1.375       .  A
C1879      H1891   1.082       .  S
C1880      H1892   1.082       .  S
C1881      C1882   1.371       .  A
C1881      H1893   1.082       .  S
C1882      H1894   1.082       .  S
C1883      C1917   1.488       .  S
C1884      C1949   1.485       .  S
C1885      C1933   1.483       .  S
C1886      C1898   1.485       .  S
C1897      C1902   1.405       .  A
C1897      H1904   1.083       .  S
C1898      C1899   1.416       .  A
C1899      C1900   1.407       .  A
C1899      C1906   1.520       .  S
C1900      C1901   1.404   1_556  A
C1900      H1905   1.084       .  S
C1902      C1903   1.516       .  S
C1903      F1907   1.385       .  S
C1903      F1908   1.380       .  S
C1906      F1911   1.383       .  S
C1906      F1912   1.384       .  S
C1913      C1914   1.402       .  A
C1913      C1918   1.407       .  A
C1913      H1920   1.075       .  S
C1915      C1916   1.404       .  A
C1915      C1922   1.515       .  S
C1916      H1921   1.085       .  S
C1917      C1918   1.415       .  A
C1918      C1919   1.518       .  S
C1919      F1923   1.382       .  S
C1919      F1925   1.384       .  S
C1922      F1926   1.384       .  S
C1922      F1928   1.383       .  S
C1929      C1930   1.401   1_554  A
C1929      C1934   1.399       .  A
C1929      H1936   1.076       .  S
C1931      C1932   1.408       .  A
C1931      C1938   1.522       .  S
C1932      H1937   1.083       .  S
C1933      C1934   1.413   1_556  A
C1934      C1935   1.520       .  S
C1935      F1941   1.383       .  S
C1938      F1942   1.383       .  S
C1945      C1946   1.400   1_554  A
C1945      C1950   1.403       .  A
C1945      H1952   1.076       .  S
C1947      C1948   1.406       .  A
C1947      C1954   1.511       .  S
C1948      H1953   1.083       .  S
C1949      C1950   1.414   1_556  A
C1950      C1951   1.518       .  S
C1951      F1957   1.385       .  S
C1954      F1958   1.382       .  S
C1961      C2658   1.401       .  A
C1961      C1966   1.404       .  A
C1961      H1968   1.084       .  S
C1962      C2657   1.401   1_565  A
C1962      C1963   1.417       .  A
C1963      C1964   1.410       .  A
C1963      C1970   1.518       .  S
C1964      C2661   1.406       .  A
C1964      H1969   1.084       .  S
C1965      C2660   1.403       .  A
C1965      C1966   1.418       .  A
C1966      C1967   1.514       .  S
C1967      F2667   1.385       .  S
C1967      F2668   1.376       .  S
C1967      F1973   1.381       .  S
C1970      F1974   1.381       .  S
C1970      F2671   1.383       .  S
C1970      F2672   1.383       .  S
F1971      C2663   1.385       .  S
F1972      C2663   1.378       .  S
F1975      C2666   1.381       .  S
F1976      C2666   1.381       .  S
C1977      C1978   1.405       .  A
C1977      C1982   1.408       .  A
C1977      H1984   1.083       .  S
C1978      C2675   1.422       .  A
C1979      C2674   1.421       .  A
C1979      C1980   1.405       .  A
C1979      C1986   1.519       .  S
C1980      C1981   1.402       .  A
C1980      H1985   1.083       .  S
C1981      C2678   1.420   1_565  A
C1982      C2677   1.417       .  A
C1982      C1983   1.520       .  S
C1983      F1987   1.381       .  S
C1983      F2684   1.385       .  S
C1983      F1989   1.383       .  S
C1986      F1990   1.382       .  S
C1986      F2687   1.376       .  S
C1986      F1992   1.385       .  S
F1988      C2679   1.384       .  S
F1991      C2682   1.377       .  S
C1993      C1994   1.405       .  A
C1993      C1998   1.411       .  A
C1993      H2000   1.083       .  S
C1994      C2691   1.414   1_565  A
C1995      C2690   1.413       .  A
C1995      C1996   1.403       .  A
C1995      C2002   1.511       .  S
C1996      C2693   1.402       .  A
C1996      H2001   1.083       .  S
C1997      C2692   1.405   1_565  A
C1997      C1998   1.420       .  A
C1998      C1999   1.521       .  S
C1999      F2699   1.381       .  S
C1999      F2700   1.385       .  S
C1999      F2005   1.383       .  S
C2002      F2006   1.382       .  S
C2002      F2703   1.378       .  S
C2002      F2704   1.385       .  S
F2003      C2695   1.385       .  S
F2004      C2695   1.382       .  S
F2007      C2698   1.382       .  S
F2008      C2698   1.384       .  S
C2009      C2706   1.401       .  A
C2009      C2014   1.404       .  A
C2009      H2016   1.083       .  S
C2010      C2705   1.406       .  A
C2010      C2011   1.419   1_565  A
C2011      C2012   1.405       .  A
C2011      C2018   1.508       .  S
C2012      C2013   1.399   1_545  A
C2012      H2017   1.083       .  S
C2013      C2710   1.414       .  A
C2014      C2709   1.416       .  A
C2014      C2015   1.517       .  S
C2015      F2019   1.385       .  S
C2015      F2716   1.381       .  S
C2015      F2021   1.383       .  S
C2018      F2022   1.377       .  S
C2018      F2719   1.383       .  S
C2018      F2024   1.384       .  S
F2020      C2711   1.384       .  S
F2023      C2714   1.383       .  S
C2025      C2026   1.404       .  A
C2025      C2030   1.413       .  A
C2025      H2032   1.080       .  S
C2027      C2028   1.407       .  A
C2027      C2034   1.509       .  S
C2028      H2033   1.083       .  S
C2029      C2030   1.416       .  A
C2030      C2031   1.520       .  S
C2031      F2035   1.380       .  S
C2031      F2036   1.383       .  S
C2031      F2037   1.382       .  S
C2034      F2038   1.380       .  S
C2034      F2039   1.383       .  S
C2034      F2040   1.384       .  S
C2041      C2042   1.404       .  A
C2041      C2046   1.414       .  A
C2041      H2048   1.083       .  S
C2043      C2044   1.407       .  A
C2043      C2050   1.517       .  S
C2044      H2049   1.085       .  S
C2045      C2046   1.423       .  A
C2046      C2047   1.521       .  S
C2047      F2051   1.384       .  S
C2047      F2052   1.382       .  S
C2047      F2053   1.379       .  S
C2050      F2054   1.382       .  S
C2050      F2055   1.382       .  S
C2050      F2056   1.382       .  S
C2057      C2062   1.413       .  A
C2057      H2064   1.080       .  S
C2058      C2059   1.414       .  A
C2059      C2060   1.410       .  A
C2059      C2066   1.516       .  S
C2060      C2061   1.405       .  A
C2060      H2065   1.083       .  S
C2062      C2063   1.519       .  S
C2063      F2067   1.385       .  S
C2063      F2068   1.382       .  S
C2063      F2069   1.381       .  S
C2066      F2070   1.383       .  S
C2066      F2071   1.380       .  S
C2066      F2072   1.384       .  S
C2073      C2074   1.407       .  A
C2073      C2078   1.410       .  A
C2073      H2080   1.083       .  S
C2075      C2076   1.400       .  A
C2075      C2082   1.516       .  S
C2076      H2081   1.076       .  S
C2077      C2078   1.417       .  A
C2078      C2079   1.515       .  S
C2079      F2083   1.384       .  S
C2079      F2084   1.383       .  S
C2079      F2085   1.379       .  S
C2082      F2086   1.381       .  S
C2082      F2087   1.382       .  S
C2082      F2088   1.385       .  S
N2089      C2094   1.355       .  A
N2089      C2093   1.354       .  A
N2089      H2121   1.034       .  S
N2090      C2097   1.352       .  A
N2090      C2098   1.352       .  A
N2091      C2096   1.353       .  A
N2091      C2095   1.354       .  A
N2091      H2122   1.040       .  S
N2092      C2099   1.351       .  A
N2092      C2100   1.352       .  A
C2093      C2101   1.389       .  A
C2093      C2109   1.421       .  A
C2094      C2110   1.418       .  A
C2094      C2102   1.386       .  A
C2095      C2103   1.387       .  A
C2095      C2112   1.415       .  A
C2096      C2111   1.413       .  A
C2096      C2104   1.387       .  A
C2097      C2109   1.419       .  A
C2097      C2105   1.387       .  A
C2098      C2112   1.418       .  A
C2098      C2106   1.386       .  A
C2099      C2107   1.388       .  A
C2099      C2110   1.418       .  A
C2100      C2108   1.385       .  A
C2100      C2111   1.413       .  A
C2101      C2102   1.374       .  A
C2101      H2113   1.082       .  S
C2102      H2114   1.082       .  S
C2103      C2104   1.374       .  A
C2103      H2115   1.082       .  S
C2104      H2116   1.082       .  S
C2105      C2106   1.375       .  A
C2105      H2117   1.082       .  S
C2106      H2118   1.082       .  S
C2107      C2108   1.375       .  A
C2107      H2119   1.082       .  S
C2108      H2120   1.082       .  S
C2109      C2409   1.493       .  S
C2110      C2422   1.491       .  S
C2111      C2377   1.491       .  S
C2112      C2390   1.496       .  S
O2123      C2134   1.294       .  A
O2123     Zr2507   2.452   1_554  S
O2124      C2135   1.294       .  A
O2124     Zr2506   2.449       .  S
O2125      C2136   1.295       .  A
O2126      C2137   1.294       .  A
O2127     Zr2509   2.437   1_554  S
O2128     Zr2508   2.450       .  S
O2129      C2135   1.295       .  A
O2129     Zr2131   2.461   1_565  S
O2130      C2134   1.295       .  A
Zr2131     O2132   2.345   1_545  S
O2132     Zr2506   2.337       .  S
O2132     Zr2509   2.344   1_564  S
C2134      C2425   1.485       .  S
C2135      C2406   1.484       .  S
C2136      C2358   1.486       .  S
C2137      C2342   1.484       .  S
H2138      O2139   0.966       .  S
O2139     Zr2508   2.340   1_565  S
H2140      O2141   0.966       .  S
O2141     Zr2507   2.343   1_554  S
O2142      C2165   1.291       .  A
O2142     Zr2158   2.441       .  S
O2143      C2166   1.292       .  A
O2143     Zr2159   2.436       .  S
O2144      C2167   1.292       .  A
O2144     Zr2160   2.435   1_565  S
O2145      C2168   1.287       .  A
O2145     Zr2161   2.422   1_565  S
O2146      C2169   1.287       .  A
O2147      C2170   1.301       .  A
O2148      C2171   1.294       .  A
O2149      C2172   1.292       .  A
O2149     Zr2162   2.441       .  S
O2150      C2171   1.295       .  A
O2150     Zr2160   2.457   1_565  S
O2151      C2172   1.294       .  A
O2151     Zr2161   2.445   1_565  S
O2152      C2167   1.293       .  A
O2153      C2170   1.287       .  A
O2154      C2169   1.296       .  A
O2154     Zr2159   2.460       .  S
O2155      C2168   1.294       .  A
O2155     Zr2158   2.443       .  S
O2156      C2165   1.298       .  A
O2156     Zr2162   2.467       .  S
O2157      C2166   1.294       .  A
Zr2158     O2472   2.454       .  S
Zr2158     O2480   2.333       .  S
Zr2158     O2176   2.345       .  S
Zr2159     O2471   2.460       .  S
Zr2159     O2489   2.334       .  S
Zr2159     O2163   2.346       .  S
Zr2160     O2476   2.471       .  S
Zr2160     O2487   2.351   1_545  S
Zr2160     O2164   2.348   1_545  S
Zr2161     O2475   2.436   1_545  S
Zr2161     O2480   2.341   1_545  S
Zr2161     O2176   2.347   1_545  S
Zr2162     O2176   2.345       .  S
C2165      C2393   1.493       .  S
C2166      C2374   1.480       .  S
C2167      C2249   1.478       .  S
C2168      C2278   1.483       .  S
C2169      C2294   1.473       .  S
C2170      C2262   1.487       .  S
C2171      C2313   1.492       .  S
C2172      C2326   1.483       .  S
H2173      O2174   0.967       .  S
H2175      O2176   0.966       .  S
N2177      C2182   1.357       .  A
N2177      C2181   1.354       .  A
N2177      H2209   1.034       .  S
N2178      C2185   1.353       .  A
N2178      C2186   1.354       .  A
N2179      C2184   1.353       .  A
N2179      C2183   1.352       .  A
N2179      H2210   1.040       .  S
N2180      C2187   1.351       .  A
N2180      C2188   1.350       .  A
C2181      C2189   1.388       .  A
C2181      C2197   1.422       .  A
C2182      C2198   1.422       .  A
C2182      C2190   1.387       .  A
C2183      C2191   1.387       .  A
C2183      C2200   1.413       .  A
C2184      C2199   1.413       .  A
C2184      C2192   1.386       .  A
C2185      C2197   1.420       .  A
C2185      C2193   1.388       .  A
C2186      C2200   1.418       .  A
C2186      C2194   1.386       .  A
C2187      C2195   1.387       .  A
C2187      C2198   1.414       .  A
C2188      C2196   1.386       .  A
C2188      C2199   1.411       .  A
C2189      C2190   1.376       .  A
C2189      H2201   1.082       .  S
C2190      H2202   1.082       .  S
C2191      C2192   1.376       .  A
C2191      H2203   1.083       .  S
C2192      H2204   1.082       .  S
C2193      C2194   1.375       .  A
C2193      H2205   1.082       .  S
C2194      H2206   1.082       .  S
C2195      C2196   1.372       .  A
C2195      H2207   1.082       .  S
C2196      H2208   1.082       .  S
C2197      C2361   1.493       .  S
C2198      C2345   1.496       .  S
C2199      C2329   1.491       .  S
C2200      C2310   1.494       .  S
N2211      C2216   1.350       .  A
N2211      C2215   1.350       .  A
N2211      H2243   1.040       .  S
N2212      C2219   1.351       .  A
N2212      C2220   1.350       .  A
N2213      C2218   1.354       .  A
N2213      C2217   1.353       .  A
N2213      H2244   1.040       .  S
N2214      C2221   1.346       .  A
N2214      C2222   1.347       .  A
C2215      C2223   1.387       .  A
C2215      C2231   1.409       .  A
C2216      C2232   1.409       .  A
C2216      C2224   1.387       .  A
C2217      C2225   1.387       .  A
C2217      C2234   1.416       .  A
C2218      C2233   1.419       .  A
C2218      C2226   1.387       .  A
C2219      C2231   1.411       .  A
C2219      C2227   1.385       .  A
C2220      C2234   1.413       .  A
C2220      C2228   1.387       .  A
C2221      C2229   1.386       .  A
C2221      C2232   1.405       .  A
C2222      C2230   1.387       .  A
C2222      C2233   1.409       .  A
C2223      C2224   1.374       .  A
C2223      H2235   1.082       .  S
C2224      H2236   1.082       .  S
C2225      C2226   1.379       .  A
C2225      H2237   1.082       .  S
C2226      H2238   1.083       .  S
C2227      C2228   1.374       .  A
C2227      H2239   1.082       .  S
C2228      H2240   1.082       .  S
C2229      C2230   1.374       .  A
C2229      H2241   1.083       .  S
C2230      H2242   1.082       .  S
C2231      C2265   1.487       .  S
C2232      C2297   1.472       .  S
C2233      C2281   1.491       .  S
C2234      C2246   1.490       .  S
C2245      C2594   1.402   1_554  A
C2245      C2250   1.403       .  A
C2245      H2252   1.083       .  S
C2246      C2593   1.404       .  A
C2246      C2247   1.416       .  A
C2247      C2248   1.406       .  A
C2247      C2254   1.519       .  S
C2248      C2249   1.403       .  A
C2248      H2253   1.084       .  S
C2249      C2598   1.417       .  A
C2250      C2597   1.415       .  A
C2250      C2251   1.518       .  S
C2251      F2255   1.385       .  S
C2251      F2256   1.382       .  S
C2251      F2605   1.382       .  S
C2254      F2606   1.381       .  S
C2254      F2259   1.383       .  S
C2254      F2260   1.385       .  S
F2257      C2599   1.383       .  S
F2258      C2602   1.382       .  S
C2261      C2262   1.405       .  A
C2261      C2266   1.410       .  A
C2261      H2268   1.075       .  S
C2262      C2611   1.420       .  A
C2263      C2610   1.412   1_554  A
C2263      C2264   1.406       .  A
C2263      C2270   1.507       .  S
C2264      C2613   1.402   1_554  A
C2264      H2269   1.083       .  S
C2265      C2612   1.398       .  A
C2265      C2266   1.415       .  A
C2266      C2267   1.520       .  S
C2267      F2271   1.381       .  S
C2267      F2620   1.383       .  S
C2267      F2273   1.384       .  S
C2270      F2274   1.383       .  S
C2270      F2623   1.382       .  S
C2270      F2276   1.385       .  S
F2272      C2615   1.385       .  S
F2275      C2618   1.376       .  S
C2277      C2278   1.404       .  A
C2277      C2282   1.404       .  A
C2277      H2284   1.085       .  S
C2278      C2627   1.422       .  A
C2279      C2626   1.420   1_556  A
C2279      C2280   1.404       .  A
C2279      C2286   1.520       .  S
C2280      C2629   1.403   1_556  A
C2280      H2285   1.084       .  S
C2281      C2628   1.402       .  A
C2281      C2282   1.422       .  A
C2282      C2283   1.520       .  S
C2283      F2635   1.384       .  S
C2283      F2636   1.380       .  S
C2283      F2289   1.384       .  S
C2286      F2290   1.382       .  S
C2286      F2639   1.378       .  S
C2286      F2640   1.385       .  S
F2287      C2631   1.384       .  S
F2288      C2631   1.381       .  S
F2291      C2634   1.381       .  S
F2292      C2634   1.385       .  S
C2293      C2294   1.395       .  A
C2293      C2298   1.398       .  A
C2293      H2300   1.063       .  S
C2294      C2643   1.410       .  A
C2295      C2642   1.414       .  A
C2295      C2296   1.404       .  A
C2295      C2302   1.512       .  S
C2296      C2645   1.399       .  A
C2296      H2301   1.083       .  S
C2297      C2644   1.399       .  A
C2297      C2298   1.411       .  A
C2298      C2299   1.521       .  S
C2299      F2651   1.382       .  S
C2299      F2652   1.381       .  S
C2299      F2305   1.384       .  S
C2302      F2306   1.382       .  S
C2302      F2655   1.382       .  S
C2302      F2656   1.383       .  S
F2303      C2647   1.380       .  S
F2304      C2647   1.383       .  S
F2307      C2650   1.381       .  S
F2308      C2650   1.384       .  S
C2309      C2314   1.407       .  A
C2309      H2316   1.083       .  S
C2310      C2311   1.416       .  A
C2311      C2312   1.407       .  A
C2311      C2318   1.514       .  S
C2312      H2317   1.085       .  S
C2313      C2314   1.419   1_565  A
C2314      C2315   1.514       .  S
C2315      F2321   1.383       .  S
C2318      F2322   1.381       .  S
C2325      C2326   1.403   1_545  A
C2325      C2330   1.406       .  A
C2325      H2332   1.082       .  S
C2327      C2328   1.410       .  A
C2327      C2334   1.519       .  S
C2328      C2329   1.404       .  A
C2328      H2333   1.083       .  S
C2330      C2331   1.522       .  S
C2331      F2335   1.380       .  S
C2331      F2337   1.383       .  S
C2334      F2338   1.382       .  S
C2334      F2340   1.385       .  S
C2341      C2342   1.403       .  A
C2341      C2346   1.408       .  A
C2341      H2348   1.083       .  S
C2343      C2344   1.404       .  A
C2343      C2350   1.515       .  S
C2344      H2349   1.083       .  S
C2345      C2346   1.419       .  A
C2346      C2347   1.520       .  S
C2347      F2353   1.386       .  S
C2350      F2354   1.382       .  S
C2357      C2362   1.403       .  A
C2357      H2364   1.083       .  S
C2358      C2359   1.420       .  A
C2359      C2360   1.405       .  A
C2359      C2366   1.510       .  S
C2360      C2361   1.400       .  A
C2360      H2365   1.085       .  S
C2362      C2363   1.518       .  S
C2363      F2367   1.385       .  S
C2363      F2369   1.383       .  S
C2366      F2370   1.377       .  S
C2366      F2372   1.384       .  S
C2373      C2374   1.403       .  A
C2373      C2378   1.406       .  A
C2373      H2380   1.082       .  S
C2375      C2376   1.405       .  A
C2375      C2382   1.513       .  S
C2376      H2381   1.083       .  S
C2377      C2378   1.417       .  A
C2378      C2379   1.519       .  S
C2379      F2383   1.385       .  S
C2379      F2384   1.381       .  S
C2379      F2385   1.383       .  S
C2382      F2386   1.383       .  S
C2382      F2387   1.382       .  S
C2382      F2388   1.385       .  S
C2389      C2390   1.404       .  A
C2389      C2394   1.411       .  A
C2389      H2396   1.083       .  S
C2391      C2392   1.407       .  A
C2391      C2398   1.516       .  S
C2392      H2397   1.085       .  S
C2393      C2394   1.424       .  A
C2394      C2395   1.520       .  S
C2395      F2399   1.385       .  S
C2395      F2400   1.383       .  S
C2395      F2401   1.381       .  S
C2398      F2402   1.382       .  S
C2398      F2403   1.381       .  S
C2398      F2404   1.382       .  S
C2405      C2410   1.411       .  A
C2405      H2412   1.082       .  S
C2406      C2407   1.416       .  A
C2407      C2408   1.409       .  A
C2407      C2414   1.514       .  S
C2408      C2409   1.403       .  A
C2408      H2413   1.083       .  S
C2410      C2411   1.519       .  S
C2411      F2415   1.385       .  S
C2411      F2416   1.383       .  S
C2411      F2417   1.381       .  S
C2414      F2418   1.382       .  S
C2414      F2419   1.382       .  S
C2414      F2420   1.384       .  S
C2421      C2422   1.399       .  A
C2421      C2426   1.406       .  A
C2421      H2428   1.083       .  S
C2423      C2424   1.406       .  A
C2423      C2430   1.518       .  S
C2424      H2429   1.082       .  S
C2425      C2426   1.415       .  A
C2426      C2427   1.505       .  S
C2427      F2431   1.384       .  S
C2427      F2432   1.381       .  S
C2427      F2433   1.379       .  S
C2430      F2434   1.381       .  S
C2430      F2435   1.384       .  S
C2430      F2436   1.384       .  S
N2437      C2442   1.354       .  A
N2437      C2441   1.355       .  A
N2437      H2469   1.034       .  S
N2438      C2445   1.352       .  A
N2438      C2446   1.351       .  A
N2439      C2444   1.356       .  A
N2439      C2443   1.355       .  A
N2439      H2470   1.038       .  S
N2440      C2447   1.353       .  A
N2440      C2448   1.354       .  A
C2441      C2449   1.387       .  A
C2441      C2457   1.420       .  A
C2442      C2458   1.421       .  A
C2442      C2450   1.388       .  A
C2443      C2451   1.386       .  A
C2443      C2460   1.418       .  A
C2444      C2459   1.421       .  A
C2444      C2452   1.388       .  A
C2445      C2457   1.415       .  A
C2445      C2453   1.386       .  A
C2446      C2460   1.417       .  A
C2446      C2454   1.387       .  A
C2447      C2455   1.387       .  A
C2447      C2458   1.421       .  A
C2448      C2456   1.385       .  A
C2448      C2459   1.417       .  A
C2449      C2450   1.372       .  A
C2449      H2461   1.082       .  S
C2450      H2462   1.082       .  S
C2451      C2452   1.374       .  A
C2451      H2463   1.082       .  S
C2452      H2464   1.081       .  S
C2453      C2454   1.372       .  A
C2453      H2465   1.082       .  S
C2454      H2466   1.082       .  S
C2455      C2456   1.371       .  A
C2455      H2467   1.082       .  S
C2456      H2468   1.082       .  S
C2457      C2757   1.492       .  S
C2458      C2770   1.496       .  S
C2459      C2725   1.498       .  S
C2460      C2738   1.496       .  S
O2471      C2482   1.295       .  A
O2472      C2483   1.294       .  A
O2473      C2484   1.291       .  A
O2474      C2485   1.292       .  A
O2477      C2483   1.288       .  A
O2477     Zr2479   2.426   1_565  S
O2478      C2482   1.294       .  A
Zr2479     O2480   2.336   1_545  S
C2482      C2773   1.494       .  S
C2483      C2754   1.472       .  S
C2484      C2706   1.471       .  S
C2485      C2690   1.471       .  S
H2486      O2487   0.967       .  S
H2488      O2489   0.966       .  S
O2490      C2513   1.291       .  A
O2490     Zr2506   2.443   1_556  S
O2491      C2514   1.293       .  A
O2491     Zr2507   2.451       .  S
O2492      C2515   1.290       .  A
O2492     Zr2508   2.427   1_565  S
O2493      C2516   1.290       .  A
O2493     Zr2509   2.432   1_564  S
O2494      C2517   1.291       .  A
O2495      C2518   1.297       .  A
O2496      C2519   1.296       .  A
O2497      C2520   1.290       .  A
O2497     Zr2510   2.431       .  S
O2498      C2519   1.291       .  A
O2498     Zr2508   2.434   1_566  S
O2499      C2520   1.295   1_545  A
O2499     Zr2509   2.452       .  S
O2500      C2515   1.289       .  A
O2501      C2518   1.293       .  A
O2502      C2517   1.291       .  A
O2502     Zr2507   2.442       .  S
O2503      C2516   1.293       .  A
O2503     Zr2506   2.440       .  S
O2504      C2513   1.295       .  A
O2504     Zr2510   2.448       .  S
O2505      C2514   1.296       .  A
Zr2506     O2524   2.344   1_554  S
Zr2507     O2511   2.335       .  S
Zr2508     O2512   2.340   1_544  S
Zr2509     O2524   2.340   1_545  S
Zr2510     O2524   2.340       .  S
C2513      C2741   1.485       .  S
C2514      C2722   1.486       .  S
C2515      C2597   1.466       .  S
C2516      C2626   1.478       .  S
C2517      C2642   1.477       .  S
C2518      C2610   1.486       .  S
C2519      C2661   1.485       .  S
C2520      C2674   1.482       .  S
H2521      O2522   0.964       .  S
H2523      O2524   0.964       .  S
N2525      C2530   1.354       .  A
N2525      C2529   1.356       .  A
N2525      H2557   1.037       .  S
N2526      C2533   1.349       .  A
N2526      C2534   1.350       .  A
N2527      C2532   1.353       .  A
N2527      C2531   1.353       .  A
N2527      H2558   1.041       .  S
N2528      C2535   1.351       .  A
N2528      C2536   1.352       .  A
C2529      C2537   1.387       .  A
C2529      C2545   1.417       .  A
C2530      C2546   1.416       .  A
C2530      C2538   1.387       .  A
C2531      C2539   1.386       .  A
C2531      C2548   1.411       .  A
C2532      C2547   1.413       .  A
C2532      C2540   1.387       .  A
C2533      C2545   1.415       .  A
C2533      C2541   1.389       .  A
C2534      C2548   1.411       .  A
C2534      C2542   1.385       .  A
C2535      C2543   1.388       .  A
C2535      C2546   1.417       .  A
C2536      C2544   1.386       .  A
C2536      C2547   1.415       .  A
C2537      C2538   1.370       .  A
C2537      H2549   1.082       .  S
C2538      H2550   1.082       .  S
C2539      C2540   1.375       .  A
C2539      H2551   1.083       .  S
C2540      H2552   1.082       .  S
C2541      C2542   1.369       .  A
C2541      H2553   1.082       .  S
C2542      H2554   1.082       .  S
C2543      C2544   1.371       .  A
C2543      H2555   1.082       .  S
C2544      H2556   1.082       .  S
C2545      C2709   1.486       .  S
C2546      C2693   1.489       .  S
C2547      C2677   1.494       .  S
C2548      C2658   1.488       .  S
N2559      C2564   1.352       .  A
N2559      C2563   1.355       .  A
N2559      H2591   1.033       .  S
N2560      C2567   1.351       .  A
N2560      C2568   1.349       .  A
N2561      C2566   1.352   1_556  A
N2561      C2565   1.350   1_556  A
N2561      H2592   1.039       .  S
N2562      C2569   1.349       .  A
N2562      C2570   1.352       .  A
C2563      C2571   1.387       .  A
C2563      C2579   1.418       .  A
C2564      C2580   1.418       .  A
C2564      C2572   1.388       .  A
C2565      C2573   1.389       .  A
C2565      C2582   1.411   1_554  A
C2566      C2581   1.411       .  A
C2566      C2574   1.386       .  A
C2567      C2579   1.414       .  A
C2567      C2575   1.385       .  A
C2568      C2582   1.414       .  A
C2568      C2576   1.387       .  A
C2569      C2577   1.388       .  A
C2569      C2580   1.416       .  A
C2570      C2578   1.385       .  A
C2570      C2581   1.412   1_556  A
C2571      C2572   1.372       .  A
C2571      H2583   1.082       .  S
C2572      H2584   1.082       .  S
C2573      C2574   1.375       .  A
C2573      H2585   1.083       .  S
C2574      H2586   1.083       .  S
C2575      C2576   1.374       .  A
C2575      H2587   1.082       .  S
C2576      H2588   1.082       .  S
C2577      C2578   1.370       .  A
C2577      H2589   1.081       .  S
C2578      H2590   1.082       .  S
C2579      C2613   1.492       .  S
C2580      C2645   1.484       .  S
C2581      C2629   1.488       .  S
C2582      C2594   1.480       .  S
C2593      C2598   1.408       .  A
C2593      H2600   1.083       .  S
C2594      C2595   1.415       .  A
C2595      C2596   1.400       .  A
C2595      C2602   1.520       .  S
C2596      C2597   1.402   1_556  A
C2596      H2601   1.084       .  S
C2598      C2599   1.518       .  S
C2599      F2603   1.384       .  S
C2599      F2604   1.382       .  S
C2602      F2607   1.382       .  S
C2602      F2608   1.385       .  S
C2609      C2610   1.402       .  A
C2609      C2614   1.409       .  A
C2609      H2616   1.072       .  S
C2611      C2612   1.404       .  A
C2611      C2618   1.515       .  S
C2612      H2617   1.083       .  S
C2613      C2614   1.415       .  A
C2614      C2615   1.517       .  S
C2615      F2619   1.383       .  S
C2615      F2621   1.382       .  S
C2618      F2622   1.382       .  S
C2618      F2624   1.385       .  S
C2625      C2626   1.403       .  A
C2625      C2630   1.403       .  A
C2625      H2632   1.083       .  S
C2627      C2628   1.402       .  A
C2627      C2634   1.521       .  S
C2628      H2633   1.083       .  S
C2629      C2630   1.419       .  A
C2630      C2631   1.519       .  S
C2631      F2637   1.383       .  S
C2634      F2638   1.383       .  S
C2641      C2642   1.402   1_554  A
C2641      C2646   1.405       .  A
C2641      H2648   1.075       .  S
C2643      C2644   1.403       .  A
C2643      C2650   1.504       .  S
C2644      H2649   1.084       .  S
C2645      C2646   1.415   1_556  A
C2646      C2647   1.522       .  S
C2647      F2653   1.383       .  S
C2650      F2654   1.382       .  S
C2657      C2662   1.405       .  A
C2657      H2664   1.083       .  S
C2658      C2659   1.418       .  A
C2659      C2660   1.406       .  A
C2659      C2666   1.516       .  S
C2660      H2665   1.085       .  S
C2661      C2662   1.419   1_565  A
C2662      C2663   1.516       .  S
C2663      F2669   1.382       .  S
C2666      F2670   1.383       .  S
C2673      C2674   1.404   1_545  A
C2673      C2678   1.406       .  A
C2673      H2680   1.084       .  S
C2675      C2676   1.407       .  A
C2675      C2682   1.519       .  S
C2676      C2677   1.402       .  A
C2676      H2681   1.083       .  S
C2678      C2679   1.521       .  S
C2679      F2683   1.382       .  S
C2679      F2685   1.382       .  S
C2682      F2686   1.382       .  S
C2682      F2688   1.385       .  S
C2689      C2690   1.399       .  A
C2689      C2694   1.404       .  A
C2689      H2696   1.083       .  S
C2691      C2692   1.406       .  A
C2691      C2698   1.517       .  S
C2692      H2697   1.083       .  S
C2693      C2694   1.420       .  A
C2694      C2695   1.520       .  S
C2695      F2701   1.381       .  S
C2698      F2702   1.383       .  S
C2705      C2710   1.410       .  A
C2705      H2712   1.082       .  S
C2706      C2707   1.412       .  A
C2707      C2708   1.401       .  A
C2707      C2714   1.507       .  S
C2708      C2709   1.400       .  A
C2708      H2713   1.083       .  S
C2710      C2711   1.517       .  S
C2711      F2715   1.381       .  S
C2711      F2717   1.384       .  S
C2714      F2718   1.377       .  S
C2714      F2720   1.384       .  S
C2721      C2722   1.405       .  A
C2721      C2726   1.414       .  A
C2721      H2728   1.081       .  S
C2723      C2724   1.406       .  A
C2723      C2730   1.507       .  S
C2724      H2729   1.083       .  S
C2725      C2726   1.420       .  A
C2726      C2727   1.522       .  S
C2727      F2731   1.383       .  S
C2727      F2732   1.383       .  S
C2727      F2733   1.380       .  S
C2730      F2734   1.378       .  S
C2730      F2735   1.383       .  S
C2730      F2736   1.385       .  S
C2737      C2738   1.406       .  A
C2737      C2742   1.410       .  A
C2737      H2744   1.083       .  S
C2739      C2740   1.405       .  A
C2739      C2746   1.519       .  S
C2740      H2745   1.085       .  S
C2741      C2742   1.423       .  A
C2742      C2743   1.521       .  S
C2743      F2747   1.386       .  S
C2743      F2748   1.381       .  S
C2743      F2749   1.378       .  S
C2746      F2750   1.382       .  S
C2746      F2751   1.383       .  S
C2746      F2752   1.382       .  S
C2753      C2758   1.407       .  A
C2753      H2760   1.082       .  S
C2754      C2755   1.414       .  A
C2755      C2756   1.408       .  A
C2755      C2762   1.517       .  S
C2756      C2757   1.405       .  A
C2756      H2761   1.083       .  S
C2758      C2759   1.517       .  S
C2759      F2763   1.385       .  S
C2759      F2764   1.382       .  S
C2759      F2765   1.381       .  S
C2762      F2766   1.383       .  S
C2762      F2767   1.383       .  S
C2762      F2768   1.384       .  S
C2769      C2770   1.401       .  A
C2769      C2774   1.407       .  A
C2769      H2776   1.083       .  S
C2771      C2772   1.407       .  A
C2771      C2778   1.523       .  S
C2772      H2777   1.077       .  S
C2773      C2774   1.418       .  A
C2774      C2775   1.504       .  S
C2775      F2779   1.384       .  S
C2775      F2780   1.383       .  S
C2775      F2781   1.373       .  S
C2778      F2782   1.382       .  S
C2778      F2783   1.383       .  S
C2778      F2784   1.383       .  S
