geometry optimzed in LAMMPS
_audit_creation_date              2020-11-30 
_audit_creation_method            'lammps2cif' 
_symmetry_space_group_name_H-M    'P1' 
_symmetry_Int_Tables_number       1 
_symmetry_cell_setting            triclinic 
loop_ 
_symmetry_equiv_pos_as_xyz 
  x,y,z 
_cell_length_a                    61.16291348 
_cell_length_b                    61.220767454538134 
_cell_length_c                    82.49251463518313 
_cell_angle_alpha                 89.83006442880776 
_cell_angle_beta                  90.06234268514466 
_cell_angle_gamma                 123.29891802550435 
loop_ 
_atom_site_label 
_atom_site_type_symbol 
_atom_site_fract_x 
_atom_site_fract_y 
_atom_site_fract_z 
_atom_site_charge 
N1          N  0.23359954  0.18762067  0.09854571    -0.27200
N2          N  0.24894771  0.19641778  0.11142065    -0.35100
C3          C  0.24041022  0.17709613  0.12231501     0.01100
C4          C  0.21866323  0.15496364  0.11601210     0.07100
C5          C  0.21471787  0.16225410  0.10093930    -0.06000
H6          H  0.25025304  0.17868435  0.13357342     0.07800
H7          H  0.20021745  0.14972412  0.09201329     0.09000
Cu8        Cu  0.28340756  0.23243522  0.11280226     0.44200
Cu9        Cu  0.24228372  0.20966805  0.07756963     0.42000
Cu10       Cu  0.30813661  0.27084024  0.07713242     0.43900
N11         N  0.32050191  0.26546641  0.11127116    -0.34600
N12         N  0.32992332  0.27994387  0.09805001    -0.28900
C13         C  0.35540899  0.29839028  0.10031208    -0.05000
C14         C  0.36218195  0.29504485  0.11568198     0.07200
C15         C  0.33962110  0.27409495  0.12230663     0.01000
H16         H  0.36828168  0.31223891  0.09117718     0.08700
H17         H  0.33750836  0.26500792  0.13396915     0.07800
N18         N  0.28405733  0.25454238  0.05721345    -0.36100
N19         N  0.26030135  0.23293572  0.05731515    -0.28300
C20         C  0.25126532  0.22734734  0.04203062    -0.03500
C21         C  0.27044885  0.24600939  0.03181254     0.05100
C22         C  0.29076288  0.26309411  0.04190824     0.03200
H23         H  0.23218814  0.21065401  0.03866532     0.08300
H24         H  0.30956568  0.28008289  0.03833252     0.07100
N25         N  0.30020149  0.31372580  0.84286283    -0.27200
N26         N  0.28571343  0.30383504  0.82969933    -0.35100
C27         C  0.29424245  0.32249731  0.81833605     0.01100
C28         C  0.31515136  0.34528224  0.82465160     0.07100
C29         C  0.31859118  0.33910772  0.84018858    -0.06000
H30         H  0.28490511  0.32000077  0.80673631     0.07800
H31         H  0.33228444  0.35241527  0.84921629     0.09000
Cu32       Cu  0.25203099  0.26741358  0.82867860     0.44200
Cu33       Cu  0.29081064  0.29327895  0.86450129     0.42000
Cu34       Cu  0.22429613  0.23428209  0.86629866     0.43900
N35         N  0.21446843  0.23573426  0.83088495    -0.34600
N36         N  0.20386624  0.22334815  0.84466539    -0.28900
C37         C  0.17825164  0.20554251  0.84222996    -0.05000
C38         C  0.17270099  0.20729956  0.82620186     0.07200
C39         C  0.19604370  0.22651436  0.81936740     0.01000
H40         H  0.16449867  0.19334081  0.85160522     0.08700
H41         H  0.19922508  0.23411716  0.80713657     0.07800
N42         N  0.24885786  0.25106629  0.88606970    -0.36100
N43         N  0.27318125  0.27176950  0.88534626    -0.28300
C44         C  0.28331698  0.27757230  0.90037304    -0.03500
C45         C  0.26433084  0.25995898  0.91100319     0.05100
C46         C  0.24278525  0.24338471  0.90159056     0.03200
H47         H  0.30277585  0.29397243  0.90339424     0.08300
H48         H  0.22401407  0.22706592  0.90571900     0.07100
O49         O  0.22360355  0.24024591  0.46995949    -0.72900
O50         O  0.29310828  0.26653906  0.49047565    -0.73900
O51         O  0.27245614  0.28852215  0.47028159    -0.62500
O52         O  0.24409474  0.21825743  0.49031857    -0.70900
O53         O  0.25624996  0.20614959  0.46857434    -0.70500
O54         O  0.28445901  0.27655539  0.44840188    -0.61700
O55         O  0.30506677  0.25449168  0.46860128    -0.74200
O56         O  0.23567362  0.22799215  0.44823304    -0.73000
Cu57       Cu  0.25788128  0.25381082  0.48102298     1.04600
Cu58       Cu  0.27078849  0.24086986  0.45768744     1.04300
C59         C  0.21880817  0.23017184  0.45582279     0.93300
C60         C  0.30995975  0.26445088  0.48275871     0.92400
C61         C  0.28273001  0.29357062  0.45617947     0.84600
C62         C  0.24590333  0.20122069  0.48266684     0.90900
O63         O  0.09571242  0.38053964  0.80198273    -0.72900
O64         O  0.12524891  0.45134416  0.78227602    -0.73900
O65         O  0.14465519  0.42852044  0.80285370    -0.62500
O66         O  0.07615772  0.40328406  0.78126470    -0.70900
O67         O  0.06338863  0.41504888  0.80287174    -0.70500
O68         O  0.13228785  0.44065566  0.82448133    -0.61700
O69         O  0.11248580  0.46312483  0.80388355    -0.74200
O70         O  0.08309601  0.39238910  0.82362472    -0.73000
Cu71       Cu  0.11086883  0.41549320  0.79134876     1.04600
Cu72       Cu  0.09733146  0.42819870  0.81448017     1.04300
C73         C  0.08516711  0.37547145  0.81601208     0.93300
C74         C  0.12329424  0.46829364  0.78993661     0.92400
C75         C  0.14923961  0.43837853  0.81703929     0.84600
C76         C  0.05912294  0.40555019  0.78857545     0.90900
N77         N  0.24837725  0.05431370  0.09431926    -0.27200
N78         N  0.26110026  0.05821815  0.10807546    -0.35100
C79         C  0.25129838  0.06621992  0.11942278     0.01100
C80         C  0.23126053  0.06713311  0.11250437     0.07100
C81         C  0.22984067  0.05942453  0.09659037    -0.06000
H82         H  0.25782375  0.07036210  0.13189077     0.07800
H83         H  0.21622317  0.05742725  0.08739797     0.09000
Cu84       Cu  0.29050116  0.05165618  0.11101118     0.44200
Cu85       Cu  0.25698302  0.04208701  0.07331301     0.42000
Cu86       Cu  0.30750245  0.02797822  0.07639719     0.43900
N87         N  0.32147133  0.04711702  0.11071915    -0.34600
N88         N  0.32789559  0.03860601  0.09805094    -0.28900
C89         C  0.35085233  0.04126573  0.10103627    -0.05000
C90         C  0.35917697  0.05200988  0.11628887     0.07200
C91         C  0.34004177  0.05531442  0.12212570     0.01000
H92         H  0.36143691  0.03721247  0.09236181     0.08700
H93         H  0.34041521  0.06460358  0.13335435     0.07800
N94         N  0.28749129  0.52434115  0.05526973    -0.36100
N95         N  0.26961222  0.53005356  0.05410413    -0.28300
C96         C  0.26169232  0.52723985  0.03862263    -0.03500
C97         C  0.27487112  0.51891145  0.02961094     0.05100
C98         C  0.29129172  0.51759122  0.04056010     0.03200
H99         H  0.24797996  0.53180038  0.03423542     0.08300
H100        H  0.30523399  0.51239927  0.03799714     0.07100
N101        N  0.28846982  0.44886071  0.84555036    -0.27200
N102        N  0.27373887  0.44211817  0.83242873    -0.35100
C103        C  0.28283834  0.43317366  0.82121855     0.01100
C104        C  0.30442249  0.43447567  0.82757625     0.07100
C105        C  0.30752203  0.44455192  0.84300753    -0.06000
H106        H  0.27462232  0.42666902  0.80923951     0.07800
H107        H  0.32258941  0.44864099  0.85169356     0.09000
Cu108      Cu  0.24244810  0.44603129  0.83015803     0.44200
Cu109      Cu  0.28175683  0.46371640  0.86609124     0.42000
Cu110      Cu  0.22845723  0.47413964  0.86369080     0.43900
N111        N  0.21126367  0.45031231  0.83060597    -0.34600
N112        N  0.20582930  0.46038201  0.84289094    -0.28900
C113        C  0.18316922  0.45837940  0.83984001    -0.05000
C114        C  0.17411102  0.44657739  0.82489196     0.07200
C115        C  0.19241133  0.44181665  0.81937264     0.01000
H116        H  0.17363569  0.46431054  0.84809800     0.08700
H117        H  0.19157769  0.43194425  0.80830672     0.07800
N118        N  0.25167440  0.48214127  0.88398052    -0.36100
N119        N  0.27058631  0.47782647  0.88494485    -0.28300
C120        C  0.28012362  0.48287448  0.90011977    -0.03500
C121        C  0.26681993  0.49105964  0.90909295     0.05100
C122        C  0.24880711  0.49019145  0.89849999     0.03200
H123        H  0.29520683  0.48016678  0.90441002     0.08300
H124        H  0.23378019  0.49378606  0.90133138     0.07100
N125        N  0.46602228  0.26938267  0.09428324    -0.27200
N126        N  0.45912316  0.25467975  0.10745609    -0.35100
C127        C  0.45076070  0.26419834  0.11875223     0.01100
C128        C  0.45252495  0.28598922  0.11241590     0.07100
C129        C  0.46235605  0.28884736  0.09689960    -0.06000
H130        H  0.44391365  0.25583761  0.13069374     0.07800
H131        H  0.46629811  0.30375292  0.08812553     0.09000
Cu132      Cu  0.46065376  0.22201402  0.10960837     0.44200
Cu133      Cu  0.97883307  0.26124472  0.07325783     0.42000
Cu134      Cu  0.98096698  0.20284985  0.07453258     0.43900
N135        N  0.46153497  0.18887565  0.10885343    -0.34600
N136        N  0.46892642  0.18170287  0.09598363    -0.28900
C137        C  0.46580161  0.15856790  0.09905322    -0.05000
C138        C  0.45598934  0.15093749  0.11459542     0.07200
C139        C  0.45354088  0.17058783  0.12046890     0.01000
H140        H  0.46962776  0.14775462  0.09043318     0.08700
H141        H  0.44575199  0.17118693  0.13210344     0.07800
N142        N  0.98922912  0.22583451  0.05406369    -0.36100
N143        N  0.98815055  0.24682343  0.05355389    -0.28300
C144        C  0.99302794  0.25621299  0.03831888    -0.03500
C145        C  0.99722018  0.24029432  0.02877832     0.05100
C146        C  0.99498528  0.22143415  0.03919079     0.03200
H147        H  0.99338428  0.27331654  0.03447884     0.08300
H148        H  0.99667411  0.20525098  0.03609034     0.07100
N149        N  0.06768111  0.23237243  0.84411108    -0.27200
N150        N  0.07594172  0.24773399  0.83120364    -0.35100
C151        C  0.08494070  0.23837895  0.82021122     0.01100
C152        C  0.08214276  0.21603767  0.82650278     0.07100
C153        C  0.07108706  0.21271437  0.84165643    -0.06000
H154        H  0.09291764  0.24720852  0.80850428     0.07800
H155        H  0.06617812  0.19737891  0.85032853     0.09000
Cu156      Cu  0.07479198  0.28075325  0.82906833     0.44200
Cu157      Cu  0.05369528  0.23991583  0.86470685     0.42000
Cu158      Cu  0.05107193  0.29794301  0.86351233     0.43900
N159        N  0.07186762  0.31283208  0.82950844    -0.34600
N160        N  0.06306802  0.31913678  0.84208799    -0.28900
C161        C  0.06540748  0.34190727  0.83896279    -0.05000
C162        C  0.07617434  0.35024160  0.82367903     0.07200
C163        C  0.07996279  0.33133624  0.81801966     0.01000
H164        H  0.06073368  0.35218362  0.84747049     0.08700
H165        H  0.08905296  0.33159611  0.80671413     0.07800
N166        N  0.04433063  0.27570691  0.88414324    -0.36100
N167        N  0.04518400  0.25459597  0.88452232    -0.28300
C168        C  0.04120109  0.24555980  0.89980848    -0.03500
C169        C  0.03801837  0.26193535  0.90957663     0.05100
C170        C  0.03980423  0.28066675  0.89920256     0.03200
H171        H  0.04123728  0.22864554  0.90359631     0.08300
H172        H  0.03790074  0.29669827  0.90230619     0.07100
O173        O  0.38979292  0.07238256  0.13764528    -0.72900
O174        O  0.46047034  0.10171805  0.15732793    -0.73900
O175        O  0.43784524  0.12157908  0.13684933    -0.62500
O176        O  0.41244061  0.05256733  0.15799170    -0.70900
O177        O  0.42430514  0.04031789  0.13616950    -0.70500
O178        O  0.44992682  0.10924808  0.11517607    -0.61700
O179        O  0.47233663  0.08918500  0.13564783    -0.74200
O180        O  0.40178568  0.06013294  0.11588710    -0.73000
Cu181      Cu  0.42471264  0.08751951  0.14821615     1.04600
Cu182      Cu  0.43752799  0.07432478  0.12495911     1.04300
C183        C  0.38470605  0.06176781  0.12366517     0.93300
C184        C  0.47736811  0.09962158  0.14968409     0.92400
C185        C  0.44767670  0.12616485  0.12262211     0.84600
C186        C  0.41458424  0.03567179  0.15041011     0.90900
N187        N  0.15788546  0.44123525  0.42866545    -0.27200
N188        N  0.14762142  0.42770321  0.44216169    -0.35100
C189        C  0.16626838  0.43630958  0.45352526     0.01100
C190        C  0.18940495  0.95631079  0.44688379     0.07100
C191        C  0.18347031  0.95911430  0.43114013    -0.06000
H192        H  0.16335900  0.42791970  0.46550179     0.07800
H193        H  0.19694334  0.97231515  0.42195781     0.09000
Cu194      Cu  0.11017683  0.39552428  0.44396603     0.44200
Cu195      Cu  0.13708668  0.43205491  0.40716894     0.42000
Cu196      Cu  0.07527284  0.36816404  0.40676506     0.43900
N197        N  0.07762562  0.35835381  0.44216652    -0.34600
N198        N  0.06482041  0.34787297  0.42850885    -0.28900
C199        C  0.04689874  0.32231919  0.43103211    -0.05000
C200        C  0.04893505  0.31663917  0.44698550     0.07200
C201        C  0.06849829  0.33988273  0.45369674     0.03700
H202        H  0.53451952  0.30864169  0.42171781     0.08700
H203        H  0.07657250  0.34288140  0.46576287     0.07800
N204        N  0.09115915  0.39256431  0.38677281    -0.36100
N205        N  0.11325801  0.41592507  0.38697727    -0.28300
C206        C  0.11846894  0.42594595  0.37189632    -0.03500
C207        C  0.09871469  0.40805867  0.36172941     0.05100
C208        C  0.08187439  0.38706132  0.37154599     0.03200
H209        H  0.13611611  0.44423865  0.36843720     0.08300
H210        H  0.06452414  0.36871447  0.36779143     0.07100
N211        N  0.04040360  0.38264204  0.17348716    -0.27200
N212        N  0.04986818  0.39706374  0.16022994    -0.35100
C213        C  0.03042375  0.38966590  0.14960183     0.01100
C214        C  0.50760169  0.36959433  0.15650257     0.07100
C215        C  0.51453892  0.36542577  0.17159791    -0.06000
H216        H  0.03258672  0.39904664  0.13805306     0.07800
H217        H  0.50159404  0.35184396  0.18082454     0.09000
Cu218      Cu  0.08717449  0.42932929  0.15813604     0.44200
Cu219      Cu  0.06233387  0.39020422  0.19430017     0.42000
Cu220      Cu  0.12379751  0.45423342  0.19504053     0.43900
N221        N  0.11903793  0.46678570  0.16047926    -0.34600
N222        N  0.13248180  0.47642534  0.17404367    -0.28900
C223        C  0.14969776  0.00230793  0.17210038    -0.05000
C224        C  0.14655351  0.00904924  0.15663721     0.07200
C225        C  0.12704621  0.48608026  0.14961221     0.01000
H226        H  0.16256325  0.01540887  0.18149875     0.08700
H227        H  0.11839088  0.48372178  0.13778764     0.07800
N228        N  0.10834384  0.42903940  0.21483093    -0.36100
N229        N  0.08604506  0.40585482  0.21452370    -0.28300
C230        C  0.08032930  0.39584362  0.22959908    -0.03500
C231        C  0.10005319  0.41339708  0.23990369     0.05100
C232        C  0.11741614  0.43427430  0.23012657     0.03200
H233        H  0.06248267  0.37757679  0.23294220     0.08300
H234        H  0.13452549  0.45268156  0.23400474     0.07100
N235        N  0.07797725  0.21544177  0.42680131    -0.27200
N236        N  0.09315640  0.22331659  0.43975556    -0.35100
C237        C  0.08375556  0.23204193  0.45086590     0.01100
C238        C  0.06151093  0.22938533  0.44461695     0.07100
C239        C  0.05831468  0.21880191  0.42935379    -0.06000
H240        H  0.09221993  0.23926649  0.46272681     0.07800
H241        H  0.04278897  0.21370435  0.42080921     0.09000
Cu242      Cu  0.12526295  0.22107985  0.44223499     0.44200
Cu243      Cu  0.08481531  0.20055619  0.40642363     0.42000
Cu244      Cu  0.14132018  0.19559305  0.40847444     0.43900
N245        N  0.15677941  0.21761563  0.44205646    -0.34600
N246        N  0.16294193  0.20845474  0.42962406    -0.28900
C247        C  0.18560054  0.21063527  0.43283809    -0.05000
C248        C  0.19390611  0.22165218  0.44802898     0.07200
C249        C  0.17517826  0.22575544  0.45355882     0.01000
H250        H  0.19572263  0.20550424  0.42449689     0.08700
H251        H  0.17545528  0.23502910  0.46476925     0.07800
N252        N  0.11776466  0.18610086  0.38826371    -0.36100
N253        N  0.09738147  0.18816789  0.38746498    -0.28300
C254        C  0.08739875  0.18206546  0.37241617    -0.03500
C255        C  0.10200358  0.17552323  0.36338734     0.05100
C256        C  0.12121151  0.17848702  0.37376565     0.03200
H257        H  0.07100980  0.18277962  0.36828469     0.08300
H258        H  0.13716102  0.17631962  0.37084147     0.07100
N259        N  0.11515072  0.10813200  0.17887998    -0.27200
N260        N  0.10102111  0.10229101  0.16554410    -0.35100
C261        C  0.11093323  0.09460643  0.15406487     0.01100
C262        C  0.13245166  0.09586428  0.16046996     0.07100
C263        C  0.13462162  0.10450032  0.17621788    -0.06000
H264        H  0.10340704  0.08915915  0.14185010     0.07800
H265        H  0.14939541  0.10816419  0.18502452     0.09000
Cu266      Cu  0.06985043  0.10631483  0.16321618     0.44200
Cu267      Cu  0.10731474  0.12115544  0.19981299     0.42000
Cu268      Cu  0.05433025  0.13206952  0.19721231     0.43900
N269        N  0.03923016  0.11141582  0.16331949    -0.34600
N270        N  0.03339132  0.12086423  0.17575721    -0.28900
C271        C  0.01100621  0.11928936  0.17253368    -0.05000
C272        C  0.00250928  0.10837475  0.15732338     0.07200
C273        C  0.02088266  0.10371035  0.15181608     0.01000
H274        H  0.00099116  0.12441412  0.18096702     0.08700
H275        H  0.02021177  0.09406445  0.14067994     0.07800
N276        N  0.07510142  0.13656480  0.21813218    -0.36100
N277        N  0.09424203  0.13258000  0.21907769    -0.28300
C278        C  0.10242144  0.13570851  0.23452164    -0.03500
C279        C  0.08744285  0.14152313  0.24376000     0.05100
C280        C  0.07052185  0.14221195  0.23296626     0.03200
H281        H  0.11760037  0.13312578  0.23879098     0.08300
H282        H  0.05578286  0.14624041  0.23567907     0.07100
O283        O  0.15114788  0.03828561  0.13598553    -0.72900
O284        O  0.18570740  0.10951007  0.11586440    -0.73900
O285        O  0.19280939  0.06758957  0.11392949    -0.62500
O286        O  0.14391494  0.08031696  0.13788619    -0.70900
O287        O  0.17151041  0.09660078  0.15866435    -0.70500
O288        O  0.22003841  0.08320014  0.13490602    -0.61700
O289        O  0.21332872  0.12550704  0.13663419    -0.74200
O290        O  0.17838936  0.05463795  0.15693263    -0.73000
Cu291      Cu  0.16737791  0.07332421  0.12519654     1.04600
Cu292      Cu  0.19681024  0.09061253  0.14748997     1.04300
C293        C  0.15932713  0.03522059  0.14952998     0.93300
C294        C  0.20513596  0.12876251  0.12316710     0.92400
C295        C  0.21397630  0.07308540  0.12077270     0.84600
C296        C  0.15006955  0.09058618  0.15197646     0.90900
O297        O  0.05088375  0.24615311  0.46682017    -0.72900
O298        O  0.00312422  0.26008274  0.49079524    -0.73900
O299        O  0.00974528  0.21801291  0.48924853    -0.62500
O300        O  0.04415047  0.28836094  0.46826825    -0.70900
O301        O  0.01642645  0.27133542  0.44757150    -0.70500
O302        O  0.48163750  0.20131884  0.46872850    -0.61700
O303        O  0.47529382  0.24382902  0.47012435    -0.74200
O304        O  0.02274461  0.22909917  0.44632818    -0.73000
Cu305      Cu  0.02801394  0.25378396  0.47948714     1.04600
Cu306      Cu  0.49799882  0.23577106  0.45748514     1.04300
C307        C  0.04427995  0.23525552  0.45292491     0.93300
C308        C  0.48174981  0.25431955  0.48415173     0.92400
C309        C  0.49012848  0.19856267  0.48221639     0.84600
C310        C  0.03579988  0.29091945  0.45465257     0.90900
N311        N  0.44722504  0.27212016  0.51120525    -0.27200
N312        N  0.43386372  0.26760616  0.49764345    -0.35100
C313        C  0.44380033  0.26011906  0.48606707     0.01100
C314        C  0.46456805  0.26016322  0.49262081     0.07100
C315        C  0.46630932  0.26790941  0.50855396    -0.06000
H316        H  0.43671672  0.25548819  0.47372603     0.07800
H317        H  0.98037854  0.27033285  0.51754355     0.09000
Cu318      Cu  0.40329050  0.27242079  0.49511664     0.44200
Cu319      Cu  0.43865518  0.28353968  0.53263147     0.42000
Cu320      Cu  0.38657723  0.29515089  0.53015215     0.43900
N321        N  0.37220921  0.27668850  0.49579169    -0.34600
N322        N  0.36589041  0.28489878  0.50865628    -0.28900
C323        C  0.34321195  0.28286648  0.50576875    -0.05000
C324        C  0.33500486  0.27290577  0.49035024     0.07200
C325        C  0.35385866  0.26931533  0.48433607     0.01000
H326        H  0.33285586  0.28707370  0.51453562     0.08700
H327        H  0.35356587  0.26065906  0.47286391     0.07800
N328        N  0.40719288  0.29961357  0.55110676    -0.36100
N329        N  0.42561350  0.29461724  0.55218837    -0.28300
C330        C  0.43398351  0.29809028  0.56762502    -0.03500
C331        C  0.42015226  0.30564620  0.57662192     0.05100
C332        C  0.40354447  0.30666179  0.56575330     0.03200
H333        H  0.44921228  0.29561321  0.57192356     0.08300
H334        H  0.38952865  0.31174652  0.56835036     0.07100
N335        N  0.41660836  0.38921632  0.75995287    -0.27200
N336        N  0.43188137  0.39662425  0.77286189    -0.35100
C337        C  0.42220732  0.40433003  0.78448052     0.01100
C338        C  0.39967232  0.40156776  0.77867092     0.07100
C339        C  0.39661311  0.39192557  0.76308469    -0.06000
H340        H  0.43087299  0.41123161  0.79633373     0.07800
H341        H  0.38107101  0.38727026  0.75465212     0.09000
Cu342      Cu  0.46497469  0.39574771  0.77452386     0.44200
Cu343      Cu  0.42430182  0.37620772  0.73876136     0.42000
Cu344      Cu  0.48380816  0.37528618  0.73971243     0.43900
N345        N  0.49756063  0.39387880  0.77409312    -0.34600
N346        N  0.50476483  0.38645122  0.76126393    -0.28900
C347        C  0.02743233  0.38864164  0.76459457    -0.05000
C348        C  0.03468562  0.39786766  0.78027819     0.07200
C349        C  0.51530116  0.40094197  0.78593537     0.01000
H350        H  0.03821853  0.38460349  0.75607081     0.08700
H351        H  0.51456094  0.40857982  0.79758772     0.07800
N352        N  0.45988381  0.36587680  0.71955133    -0.36100
N353        N  0.43830406  0.36597220  0.71917694    -0.28300
C354        C  0.42804353  0.35946443  0.70416672    -0.03500
C355        C  0.44411821  0.35547209  0.69458677     0.05100
C356        C  0.46391620  0.35939889  0.70481190     0.03200
H357        H  0.41050680  0.35834732  0.70039362     0.08300
H358        H  0.48009146  0.35763776  0.70180801     0.07100
O359        O  0.35565322  0.44458405  0.78287827    -0.72900
O360        O  0.31999287  0.37402818  0.80365301    -0.73900
O361        O  0.31441906  0.41710256  0.80530185    -0.62500
O362        O  0.36108027  0.40168317  0.78101152    -0.70900
O363        O  0.38931786  0.41785396  0.80146114    -0.70500
O364        O  0.34250823  0.43327022  0.82583147    -0.61700
O365        O  0.34818474  0.39044382  0.82413523    -0.74200
O366        O  0.38373699  0.46082379  0.80342581    -0.73000
Cu367      Cu  0.33675034  0.40872925  0.79251498     1.04600
Cu368      Cu  0.36695665  0.42617346  0.81442226     1.04300
C369        C  0.37532876  0.46385079  0.78999477     0.93300
C370        C  0.32847193  0.37111631  0.81711195     0.92400
C371        C  0.32118538  0.42785653  0.81924021     0.84600
C372        C  0.38256893  0.40733868  0.78743534     0.90900
N373        N  0.36377447  0.05043604  0.50959946    -0.27200
N374        N  0.37378383  0.06400159  0.49608908    -0.35100
C375        C  0.35498891  0.05518277  0.48482305     0.01100
C376        C  0.33203655  0.03501722  0.49155670     0.07100
C377        C  0.33820682  0.03234165  0.50725398    -0.06000
H378        H  0.35769195  0.06344497  0.47282297     0.07800
H379        H  0.32493195  0.51905667  0.51647973     0.09000
Cu380      Cu  0.41133683  0.09595687  0.49397202     0.44200
Cu381      Cu  0.38484385  0.05985240  0.53091503     0.42000
Cu382      Cu  0.44893004  0.12195486  0.53026871     0.43900
N383        N  0.44593642  0.13174644  0.49504141    -0.34600
N384        N  0.45990350  0.14169828  0.50839023    -0.28900
C385        C  0.97904049  0.16680139  0.50561343    -0.05000
C386        C  0.97662665  0.17277337  0.48980850     0.07200
C387        C  0.45558485  0.15011799  0.48344081     0.01000
H388        H  0.99235707  0.18017727  0.51475594     0.08700
H389        H  0.44673238  0.14766915  0.47166711     0.07800
N390        N  0.43144386  0.09952855  0.55078926    -0.36100
N391        N  0.40849103  0.07698350  0.55098874    -0.28300
C392        C  0.40262984  0.06812969  0.56631191    -0.03500
C393        C  0.42265489  0.08618574  0.57627291     0.05100
C394        C  0.44072371  0.10564939  0.56598855     0.03200
H395        H  0.38513586  0.04988124  0.56983796     0.08300
H396        H  0.45908519  0.12329849  0.56934350     0.07100
N397        N  0.40421779  0.02141114  0.76450920    -0.27200
N398        N  0.41857649  0.03118446  0.77772606    -0.35100
C399        C  0.40971858  0.01243978  0.78905916     0.01100
C400        C  0.38877899  0.48976674  0.78261541     0.07100
C401        C  0.38563173  0.49608393  0.76707820    -0.06000
H402        H  0.41885073  0.01477497  0.80071038     0.07800
H403        H  0.37203565  0.48289638  0.75796646     0.09000
Cu404      Cu  0.45228657  0.06769592  0.77880695     0.44200
Cu405      Cu  0.41387388  0.04181446  0.74297407     0.42000
Cu406      Cu  0.47853048  0.10308726  0.74149070     0.43900
N407        N  0.48910228  0.10078933  0.77667315    -0.34600
N408        N  0.99911866  0.11397971  0.76304074    -0.28900
C409        C  0.02445290  0.13278447  0.76550096    -0.05000
C410        C  0.03044984  0.13093755  0.78140073     0.07200
C411        C  0.00764594  0.11056140  0.78812605     0.01000
H412        H  0.03778598  0.14577671  0.75619942     0.08700
H413        H  0.00499615  0.10256416  0.80020895     0.07800
N414        N  0.45422525  0.08575358  0.72169643    -0.36100
N415        N  0.43079070  0.06379164  0.72230646    -0.28300
C416        C  0.42076025  0.05749233  0.70728860    -0.03500
C417        C  0.43891442  0.07617773  0.69667680     0.05100
C418        C  0.45972521  0.09397540  0.70624554     0.03200
H419        H  0.40168123  0.04053886  0.70439207     0.08300
H420        H  0.47785620  0.11134346  0.70222095     0.07100
O421        O  0.39150012  0.30079429  0.13645959    -0.72900
O422        O  0.46221649  0.33722255  0.15683618    -0.73900
O423        O  0.41901747  0.34234866  0.15860900    -0.62500
O424        O  0.43499963  0.29589000  0.13467006    -0.70900
O425        O  0.45087510  0.32375927  0.11397172    -0.70500
O426        O  0.43453290  0.37005924  0.13782478    -0.61700
O427        O  0.47816032  0.36514880  0.13615636    -0.74200
O428        O  0.40736351  0.32847996  0.11566038    -0.73000
Cu429      Cu  0.42633595  0.31806684  0.14735582     1.04600
Cu430      Cu  0.44331535  0.34790201  0.12519555     1.04300
C431        C  0.38823586  0.30882734  0.12293636     0.93300
C432        C  0.48141478  0.35674824  0.14954259     0.92400
C433        C  0.42405610  0.36343506  0.15187514     0.84600
C434        C  0.44572892  0.30262516  0.12068882     0.90900
N435        N  0.29750468  0.43501461  0.42900165    -0.27200
N436        N  0.29220002  0.42127995  0.44250527    -0.35100
C437        C  0.28301695  0.43026639  0.45364677     0.01100
C438        C  0.28264915  0.45070032  0.44684039     0.07100
C439        C  0.29206408  0.45330374  0.43124666    -0.06000
H440        H  0.27702639  0.42245861  0.46577197     0.07800
H441        H  0.29442861  0.46718448  0.42212771     0.09000
Cu442      Cu  0.29661884  0.39031401  0.44512091     0.44200
Cu443      Cu  0.31055314  0.42740593  0.40789121     0.42000
Cu444      Cu  0.31825226  0.37282711  0.40968089     0.43900
N445        N  0.29841160  0.35761222  0.44388815    -0.34600
N446        N  0.30610143  0.35101730  0.43088187    -0.28900
C447        C  0.30255349  0.32755946  0.43343032    -0.05000
C448        C  0.29213152  0.31906936  0.44876888     0.07200
C449        C  0.28984077  0.33860956  0.45507627     0.01000
H450        H  0.30625569  0.31701539  0.42452563     0.08700
H451        H  0.28144078  0.33849828  0.46663318     0.07800
N452        N  0.32538185  0.39525402  0.38908025    -0.36100
N453        N  0.32198753  0.41478096  0.38829186    -0.28300
C454        C  0.32662140  0.42409030  0.37302799    -0.03500
C455        C  0.33316987  0.40966027  0.36378281     0.05100
C456        C  0.33247898  0.39176647  0.37438880     0.03200
H457        H  0.32534496  0.44018229  0.36898958     0.08300
H458        H  0.33616953  0.37682301  0.37153208     0.07100
N459        N  0.40525136  0.39721115  0.17888118    -0.27200
N460        N  0.40970746  0.41062228  0.16532486    -0.35100
C461        C  0.41728497  0.40079867  0.15372061     0.01100
C462        C  0.41744218  0.38011472  0.16026394     0.07100
C463        C  0.40963737  0.37826876  0.17620589    -0.06000
H464        H  0.42214993  0.40809676  0.14142200     0.07800
H465        H  0.40755997  0.36438402  0.18524362     0.09000
Cu466      Cu  0.40559698  0.44173834  0.16298566     0.44200
Cu467      Cu  0.39454256  0.40602383  0.20050617     0.42000
Cu468      Cu  0.38772781  0.46133458  0.19877709     0.43900
N469        N  0.40255721  0.47362930  0.16379677    -0.34600
N470        N  0.39596620  0.48089200  0.17698611    -0.28900
C471        C  0.39808982  0.50358409  0.17405488    -0.05000
C472        C  0.40649564  0.51088781  0.15826021     0.07200
C473        C  0.40905135  0.49145789  0.15208167     0.01000
H474        H  0.39506725  0.51456708  0.18299995     0.08700
H475        H  0.41637059  0.49096742  0.14024068     0.07800
N476        N  0.38365443  0.44086476  0.21967013    -0.36100
N477        N  0.38612473  0.42075063  0.22043165    -0.28300
C478        C  0.38277036  0.41244300  0.23589094    -0.03500
C479        C  0.37833775  0.42835219  0.24528668     0.05100
C480        C  0.37871482  0.44592337  0.23455421     0.03200
H481        H  0.38372943  0.39620301  0.24000588     0.08300
H482        H  0.37527854  0.46107003  0.23726449     0.07100
O483        O  0.28715557  0.00084709  0.49077420    -0.72900
O484        O  0.21779380  0.46221663  0.46839007    -0.73900
O485        O  0.26278259  0.45933174  0.46837996    -0.62500
O486        O  0.24254314  0.50365495  0.49084306    -0.70900
O487        O  0.25893529  0.03172528  0.47025913    -0.70500
O488        O  0.27890077  0.98724285  0.44771127    -0.61700
O489        O  0.23432117  0.99026325  0.44779323    -0.74200
O490        O  0.30360887  0.02870155  0.47007063    -0.73000
Cu491      Cu  0.25193866  0.48046587  0.48029607     1.04600
Cu492      Cu  0.26952735  0.01049161  0.45824939     1.04300
C493        C  0.30637553  0.02083385  0.48380620     0.93300
C494        C  0.21505829  0.47025287  0.45469689     0.92400
C495        C  0.27429782  0.46644068  0.45463963     0.84600
C496        C  0.24754156  0.02467512  0.48403873     0.90900
N497        N  0.22598999  0.05710258  0.51010971    -0.27200
N498        N  0.23314783  0.07201429  0.49701663    -0.35100
C499        C  0.24187489  0.06274856  0.48578419     0.01100
C500        C  0.24003576  0.04090072  0.49208320     0.07100
C501        C  0.22985231  0.03778224  0.50750725    -0.06000
H502        H  0.24909656  0.07136654  0.47393687     0.07800
H503        H  0.22589204  0.02284351  0.51626343     0.09000
Cu504      Cu  0.23149288  0.10460715  0.49486432     0.44200
Cu505      Cu  0.21267233  0.06461395  0.53112357     0.42000
Cu506      Cu  0.21079463  0.12304715  0.52990077     0.43900
N507        N  0.23036737  0.13759551  0.49569215    -0.34600
N508        N  0.22280988  0.14453750  0.50858715    -0.28900
C509        C  0.22628603  0.16788745  0.50573699    -0.05000
C510        C  0.23654739  0.17591340  0.49031076     0.07200
C511        C  0.23881205  0.15623342  0.48427365     0.01000
H512        H  0.22264585  0.17867282  0.51447981     0.08700
H513        H  0.24703785  0.15596611  0.47272357     0.07800
N514        N  0.20299899  0.10027319  0.55040613    -0.36100
N515        N  0.20353341  0.07897737  0.55090592    -0.28300
C516        C  0.19904154  0.06987150  0.56622061    -0.03500
C517        C  0.19594619  0.08647934  0.57582715     0.05100
C518        C  0.19824151  0.10531796  0.56536230     0.03200
H519        H  0.19898652  0.05298522  0.57016924     0.08300
H520        H  0.19689528  0.12171987  0.56839699     0.07100
N521        N  0.13464435  0.10766540  0.76165785    -0.27200
N522        N  0.12997214  0.09399772  0.77512317    -0.35100
C523        C  0.12170793  0.10323222  0.78668934     0.01100
C524        C  0.12135139  0.12384032  0.78024435     0.07100
C525        C  0.12973785  0.12623875  0.76437647    -0.06000
H526        H  0.11650986  0.09557239  0.79891341     0.07800
H527        H  0.13180625  0.14020311  0.75542394     0.09000
Cu528      Cu  0.13469916  0.06331068  0.77742178     0.44200
Cu529      Cu  0.14612400  0.09937828  0.74009138     0.42000
Cu530      Cu  0.15604018  0.04565093  0.74264686     0.43900
N531        N  0.13795882  0.03157208  0.77700980    -0.34600
N532        N  0.14586979  0.02492679  0.76415648    -0.28900
C533        C  0.14305786  0.00188564  0.76704289    -0.05000
C534        C  0.13284422  0.99373828  0.78246076     0.07200
C535        C  0.12995685  0.01305233  0.78845851     0.01000
H536        H  0.14671109  0.99117528  0.75823750     0.08700
H537        H  0.12123983  0.01292940  0.79989317     0.07800
N538        N  0.15914322  0.06544048  0.72154733    -0.36100
N539        N  0.15488097  0.08437146  0.72041609    -0.28300
C540        C  0.15668427  0.09137231  0.70474780    -0.03500
C541        C  0.16232859  0.07607864  0.69567961     0.05100
C542        C  0.16400561  0.06009068  0.70671975     0.03200
H543        H  0.15422886  0.10654374  0.70032206     0.08300
H544        H  0.16791712  0.04521708  0.70412423     0.07100
O545        O  0.05871307  0.13696259  0.80283335    -0.72900
O546        O  0.12765498  0.17398700  0.82524980    -0.73900
O547        O  0.08384130  0.17820150  0.82535066    -0.62500
O548        O  0.10286146  0.13298173  0.80244315    -0.70900
O549        O  0.11909334  0.16111045  0.78188379    -0.70500
O550        O  0.10095086  0.20645444  0.80488608    -0.61700
O551        O  0.14475438  0.20193150  0.80461240    -0.74200
O552        O  0.07535013  0.16519181  0.78232224    -0.73000
Cu553      Cu  0.09263415  0.15449271  0.81467859     1.04600
Cu554      Cu  0.11066752  0.18471612  0.79273999     1.04300
C555        C  0.05605228  0.14513658  0.78919240     0.93300
C556        C  0.14716447  0.19373198  0.81833612     0.92400
C557        C  0.08935505  0.19945700  0.81859076     0.84600
C558        C  0.11402127  0.14000975  0.78857574     0.90900
C559        C  0.19168350  0.08470873  0.59351910    -0.11900
C560        C  0.20611037  0.10670726  0.60367068     0.03600
C561        C  0.20094094  0.10431483  0.62029553    -0.12500
C562        C  0.18175342  0.08024740  0.62709088     0.18400
C563        C  0.16772033  0.05815335  0.61707692    -0.09500
C564        C  0.17283900  0.06048138  0.60042061    -0.02500
H565        H  0.21207514  0.12130877  0.62801837     0.04900
C566        C  0.17667373  0.07869087  0.64465789     0.20400
H567        H  0.16180770  0.04337130  0.59279249     0.10100
C568        C  0.15369803  0.07614950  0.65015927    -0.15800
C569        C  0.14858903  0.07524277  0.66675333     0.03100
C570        C  0.16677845  0.07703951  0.67808300    -0.11200
C571        C  0.18955176  0.07917640  0.67253342    -0.01200
C572        C  0.19467973  0.08017929  0.65596153    -0.06300
H573        H  0.13965818  0.07476050  0.64149010     0.06100
H574        H  0.20354577  0.08032134  0.68114498     0.09500
Br575      Br  0.14184719  0.02442989  0.62571871    -0.06000
Br576      Br  0.23438912  0.14000708  0.59585869    -0.03000
Br577      Br  0.11574423  0.06965862  0.67319589    -0.00100
Br578      Br  0.22621671  0.08305965  0.64931428    -0.04500
C579        C  0.33971556  0.41257337  0.34636139    -0.11900
C580        C  0.32371902  0.41379668  0.33453295     0.03600
C581        C  0.33056499  0.41623505  0.31814703    -0.12500
C582        C  0.35316045  0.41746397  0.31332285     0.18400
C583        C  0.36911753  0.41621440  0.32505404    -0.09500
C584        C  0.36222438  0.41357736  0.34143520    -0.02500
H585        H  0.31810717  0.41693783  0.30910460     0.04900
C586        C  0.35977417  0.42002361  0.29597121     0.20400
H587        H  0.37462966  0.41257349  0.35038129     0.10100
C588        C  0.37720285  0.44491134  0.28946617    -0.15800
C589        C  0.38386831  0.44809358  0.27303733     0.03100
C590        C  0.37277525  0.42600116  0.26283089    -0.11200
C591        C  0.35567687  0.40104873  0.26948891    -0.01200
C592        C  0.34905584  0.39795517  0.28591871    -0.06300
H593        H  0.38582721  0.46192736  0.29726888     0.06100
H594        H  0.34705890  0.38389774  0.26182240     0.09500
Br595      Br  0.40034176  0.41790807  0.31913625    -0.06000
Br596      Br  0.29138491  0.41028498  0.33982665    -0.03000
Br597      Br  0.40958286  0.48281639  0.26564630    -0.00100
Br598      Br  0.32539840  0.36331907  0.29416753    -0.04500
C599        C  0.42496415  0.08498089  0.59400659    -0.11900
C600        C  0.40343515  0.07611368  0.60453417     0.03600
C601        C  0.40674360  0.07515424  0.62120600    -0.12500
C602        C  0.43123016  0.08325668  0.62764444     0.18400
C603        C  0.45278943  0.09242226  0.61727319    -0.09500
C604        C  0.44955491  0.09329064  0.60058122    -0.02500
H605        H  0.39019383  0.06839975  0.62925341     0.04900
C606        C  0.43370790  0.08175279  0.64524680     0.20400
H607        H  0.46626674  0.10015352  0.59269220     0.10100
C608        C  0.42515085  0.05750278  0.65228075    -0.15800
C609        C  0.42664239  0.05512532  0.66901698     0.03100
C610        C  0.43676122  0.07741743  0.67896008    -0.11200
C611        C  0.44544115  0.10171667  0.67180363    -0.01200
C612        C  0.44380207  0.10397358  0.65507693    -0.06300
H613        H  0.41746904  0.04038915  0.64466848     0.06100
H614        H  0.45313699  0.11896362  0.67928515     0.09500
Br615      Br  0.98678340  0.10348632  0.62537591    -0.06000
Br616      Br  0.36960542  0.06706470  0.59729607    -0.03000
Br617      Br  0.41625444  0.02133854  0.67719967    -0.00100
Br618      Br  0.45485559  0.13752604  0.64619581    -0.04500
C619        C  0.42313513  0.31239983  0.59395831    -0.11900
C620        C  0.42114636  0.29505332  0.60602661     0.03600
C621        C  0.42414195  0.30231606  0.62234955    -0.12500
C622        C  0.42907679  0.32670499  0.62687533     0.18400
C623        C  0.43093081  0.34397061  0.61480875    -0.09500
C624        C  0.42774496  0.33664381  0.59850891    -0.02500
H625        H  0.42254454  0.28887091  0.63157054     0.04900
C626        C  0.43261696  0.33393977  0.64420689     0.20400
H627        H  0.42915915  0.35004474  0.58933096     0.10100
C628        C  0.45751888  0.35344070  0.64979196    -0.15800
C629        C  0.46168347  0.36088528  0.66608901     0.03100
C630        C  0.44065990  0.34843834  0.67719657    -0.11200
C631        C  0.41566227  0.32907595  0.67152064    -0.01200
C632        C  0.41154479  0.32172052  0.65518937    -0.06300
H633        H  0.47377491  0.36314330  0.64134830     0.06100
H634        H  0.39926548  0.31947449  0.67986007     0.09500
Br635      Br  0.43725893  0.37750293  0.62001406    -0.06000
Br636      Br  0.41268874  0.26066279  0.60097944    -0.03000
Br637      Br  0.49598920  0.38959602  0.67201569    -0.00100
Br638      Br  0.37673227  0.29550445  0.64830835    -0.04500
C639        C  0.09949098  0.16970819  0.34593185    -0.11900
C640        C  0.10065125  0.14892373  0.33972625     0.03600
C641        C  0.09906686  0.14468801  0.32301124    -0.12500
C642        C  0.09616090  0.16078820  0.31237711     0.18400
C643        C  0.09444455  0.18116682  0.31854010    -0.09500
C644        C  0.09608413  0.18548475  0.33523316    -0.02500
H645        H  0.09983299  0.12861196  0.31827755     0.04900
C646        C  0.09420936  0.15561396  0.29488748     0.20400
H647        H  0.09507944  0.20146714  0.33985336     0.10100
C648        C  0.06949041  0.13890271  0.28801010    -0.15800
C649        C  0.06682666  0.13378009  0.27139282     0.03100
C650        C  0.08924406  0.14585896  0.26139494    -0.11200
C651        C  0.11404011  0.16213405  0.26841756    -0.01200
C652        C  0.11664453  0.16704316  0.28506399    -0.06300
H653        H  0.05221598  0.12962334  0.29565832     0.06100
H654        H  0.13143743  0.17128304  0.26089664     0.09500
Br655      Br  0.08996043  0.20351504  0.30454937    -0.06000
Br656      Br  0.10235495  0.12457508  0.35349799    -0.03000
Br657      Br  0.03242564  0.10850058  0.26339791    -0.00100
Br658      Br  0.15106895  0.18941610  0.29392356    -0.04500
C659        C  0.09815592  0.40906143  0.34388289    -0.11900
C660        C  0.10250678  0.43124204  0.33551071     0.03600
C661        C  0.10268882  0.43156294  0.31854497    -0.12500
C662        C  0.09861686  0.41005329  0.30977757     0.18400
C663        C  0.09406152  0.38786113  0.31810366    -0.09500
C664        C  0.09368590  0.38742478  0.33502929    -0.02500
H665        H  0.10586475  0.44857115  0.31215075     0.04900
C666        C  0.09886623  0.41089925  0.29192970     0.20400
H667        H  0.09039208  0.37028497  0.34130471     0.10100
C668        C  0.12206095  0.41880068  0.28362596    -0.15800
C669        C  0.12282280  0.41945132  0.26666966     0.03100
C670        C  0.10004798  0.41214569  0.25779698    -0.11200
C671        C  0.07674943  0.40386439  0.26620403    -0.01200
C672        C  0.07607534  0.40332792  0.28314315    -0.06300
H673        H  0.13953715  0.42422933  0.29037128     0.06100
H674        H  0.05910389  0.39822812  0.25958987     0.09500
Br675      Br  0.08835139  0.35781286  0.30680521    -0.06000
Br676      Br  0.10668000  0.46084905  0.34656521    -0.03000
Br677      Br  0.15495609  0.42874801  0.25636156    -0.00100
Br678      Br  0.04369165  0.39210192  0.29385090    -0.04500
C679        C  0.03294086  0.25912411  0.92720168    -0.11900
C680        C  0.04548428  0.28067206  0.93786390     0.03600
C681        C  0.03963572  0.27685483  0.95442824    -0.12500
C682        C  0.02169208  0.25183613  0.96060615     0.18400
C683        C  0.00959188  0.23030086  0.95008683    -0.09500
C684        C  0.01530383  0.23404059  0.93353522    -0.02500
H685        H  0.04928549  0.29344854  0.96257520     0.04900
C686        C  0.01551140  0.24859356  0.97803904     0.20400
H687        H  0.50563746  0.21727064  0.92553640     0.10100
C688        C  0.49451236  0.24974418  0.98351271    -0.15800
C689        C  0.48797743  0.24669098  0.99996016     0.03100
C690        C  0.00289573  0.24278614  0.01124157    -0.11200
C691        C  0.02359415  0.24108138  0.00565047    -0.01200
C692        C  0.02999141  0.24400180  0.98916580    -0.06300
H693        H  0.48295468  0.25268770  0.97490198     0.06100
H694        H  0.03502445  0.23779752  0.01415606     0.09500
Br695      Br  0.48518180  0.19551590  0.95785887    -0.06000
Br696      Br  0.07215795  0.31530522  0.93087474    -0.03000
Br697      Br  0.45722975  0.24583528  0.00602978    -0.00100
Br698      Br  0.05844499  0.24143207  0.98227938    -0.04500
C699        C  0.27346920  0.51438140  0.01192027    -0.11900
C700        C  0.24962858  0.50233893  0.00326849     0.03600
C701        C  0.24950596  0.49896857  0.98651102    -0.12500
C702        C  0.27266477  0.50697375  0.97817323     0.18400
C703        C  0.29636865  0.01859583  0.98673225    -0.09500
C704        C  0.29663177  0.02220450  0.00346888    -0.02500
H705        H  0.23113102  0.48963841  0.97994509     0.04900
C706        C  0.27162775  0.50299544  0.96052305     0.20400
H707        H  0.31512743  0.03150209  0.00986372     0.10100
C708        C  0.27030112  0.02046031  0.95022656    -0.15800
C709        C  0.26900015  0.01713354  0.93341272     0.03100
C710        C  0.26888247  0.49588844  0.92671483    -0.11200
C711        C  0.27042351  0.47855179  0.93709485    -0.01200
C712        C  0.27160971  0.48186154  0.95389167    -0.06300
H713        H  0.27050666  0.03689247  0.95531228     0.06100
H714        H  0.27016076  0.46202957  0.93213969     0.09500
Br715      Br  0.32879073  0.03009158  0.97598161    -0.06000
Br716      Br  0.21630443  0.48809246  0.01358148    -0.03000
Br717      Br  0.26918241  0.04314395  0.92026128    -0.00100
Br718      Br  0.27247686  0.45673783  0.96735449    -0.04500
C719        C  0.27011320  0.24780302  0.01397009    -0.11900
C720        C  0.25918675  0.22560914  0.00384427     0.03600
C721        C  0.25946890  0.22866309  0.98703460    -0.12500
C722        C  0.27096259  0.25351727  0.98007947     0.18400
C723        C  0.28259744  0.27568136  0.99006472    -0.09500
C724        C  0.28201703  0.27270262  0.00686153    -0.02500
H725        H  0.25089482  0.21159029  0.97931064     0.04900
C726        C  0.27007206  0.25588272  0.96238695     0.20400
H727        H  0.29084484  0.28998994  0.01440832     0.10100
C728        C  0.25220356  0.26099180  0.95577710    -0.15800
C729        C  0.25028233  0.26269327  0.93901719     0.03100
C730        C  0.26644238  0.25923794  0.92867646    -0.11200
C731        C  0.28471501  0.25470114  0.93530281    -0.01200
C732        C  0.28650582  0.25282272  0.95207341    -0.06300
H733        H  0.23969628  0.26362027  0.96370758     0.06100
H734        H  0.29733362  0.25218727  0.92737845     0.09500
Br735      Br  0.30012518  0.31036319  0.98124165    -0.06000
Br736      Br  0.24568779  0.19097252  0.01186504    -0.03000
Br737      Br  0.22628175  0.27102280  0.93089034    -0.00100
Br738      Br  0.31174519  0.24635539  0.96039758    -0.04500
N739        N  0.23360574  0.68761898  0.09854374    -0.27200
N740        N  0.24895380  0.69641590  0.11141900    -0.35100
C741        C  0.24041389  0.67709449  0.12231174     0.01100
C742        C  0.21866825  0.65496264  0.11601101     0.07100
C743        C  0.21472232  0.66225199  0.10093708    -0.06000
H744        H  0.25026552  0.67868435  0.13358078     0.07800
H745        H  0.20022719  0.64972669  0.09201449     0.09000
Cu746      Cu  0.28341405  0.73243284  0.11280036     0.44200
Cu747      Cu  0.24229066  0.70966601  0.07756731     0.42000
Cu748      Cu  0.30814436  0.77083761  0.07713075     0.43900
N749        N  0.32050814  0.76546446  0.11127003    -0.34600
N750        N  0.32993005  0.77994193  0.09804893    -0.28900
C751        C  0.35541553  0.79838968  0.10031156    -0.05000
C752        C  0.36218730  0.79504454  0.11568213     0.07200
C753        C  0.33962649  0.77409405  0.12230604     0.01000
H754        H  0.36828706  0.81223699  0.09117803     0.08700
H755        H  0.33751299  0.76500651  0.13396967     0.07800
N756        N  0.28406487  0.75454091  0.05721169    -0.36100
N757        N  0.26030860  0.73293447  0.05731308    -0.28300
C758        C  0.25127371  0.72734854  0.04202884    -0.03500
C759        C  0.27045580  0.74600984  0.03181077     0.05100
C760        C  0.29077120  0.76309450  0.04190646     0.03200
H761        H  0.23218882  0.71064915  0.03866202     0.08300
H762        H  0.30956914  0.78007895  0.03833185     0.07100
N763        N  0.30020591  0.81372739  0.84286167    -0.27200
N764        N  0.28571846  0.80383672  0.82969820    -0.35100
C765        C  0.29424646  0.82249923  0.81833459     0.01100
C766        C  0.31515464  0.84528447  0.82465098     0.07100
C767        C  0.31859568  0.83911071  0.84018835    -0.06000
H768        H  0.28491116  0.82000345  0.80673792     0.07800
H769        H  0.33228297  0.85241362  0.84921299     0.09000
Cu770      Cu  0.25203558  0.76741587  0.82867707     0.44200
Cu771      Cu  0.29081491  0.79328104  0.86450022     0.42000
Cu772      Cu  0.22430025  0.73428511  0.86629703     0.43900
N773        N  0.21447236  0.73573807  0.83088357    -0.34600
N774        N  0.20387037  0.72335219  0.84466382    -0.28900
C775        C  0.17825453  0.70554546  0.84222914    -0.05000
C776        C  0.17270496  0.70730347  0.82620036     0.07200
C777        C  0.19604758  0.72651854  0.81936555     0.01000
H778        H  0.16450771  0.69334877  0.85160014     0.08700
H779        H  0.19922841  0.73411934  0.80713703     0.07800
N780        N  0.24886121  0.75106854  0.88606838    -0.36100
N781        N  0.27318504  0.77177191  0.88534514    -0.28300
C782        C  0.28331916  0.77757364  0.90037174    -0.03500
C783        C  0.26433363  0.75996125  0.91100194     0.05100
C784        C  0.24278925  0.74338787  0.90158885     0.03200
H785        H  0.30278431  0.79397884  0.90339403     0.08300
H786        H  0.22401177  0.72706376  0.90571843     0.07100
O787        O  0.22359637  0.74024056  0.46995860    -0.72900
O788        O  0.29310187  0.76653548  0.49047462    -0.73900
O789        O  0.27244797  0.78851795  0.47028104    -0.62500
O790        O  0.24408933  0.71825315  0.49031735    -0.70900
O791        O  0.25624617  0.70614712  0.46857303    -0.70500
O792        O  0.28445166  0.77655277  0.44840099    -0.61700
O793        O  0.30506161  0.75449027  0.46859984    -0.74200
O794        O  0.23566725  0.72798798  0.44823197    -0.73000
Cu795      Cu  0.25787443  0.75380641  0.48102205     1.04600
Cu796      Cu  0.27078278  0.74086723  0.45768623     1.04300
C797        C  0.21880133  0.73016691  0.45582177     0.93300
C798        C  0.30995393  0.76444832  0.48275761     0.92400
C799        C  0.28272188  0.79356730  0.45617895     0.84600
C800        C  0.24589980  0.70121755  0.48266559     0.90900
O801        O  0.09570550  0.88053254  0.80198127    -0.72900
O802        O  0.12523947  0.95133770  0.78227601    -0.73900
O803        O  0.14464730  0.92851485  0.80285314    -0.62500
O804        O  0.07614957  0.90327650  0.78126370    -0.70900
O805        O  0.06337950  0.91503928  0.80287125    -0.70500
O806        O  0.13227878  0.94064850  0.82448095    -0.61700
O807        O  0.11247482  0.96311627  0.80388380    -0.74200
O808        O  0.08308859  0.89238067  0.82362365    -0.73000
Cu809      Cu  0.11086082  0.91548658  0.79134797     1.04600
Cu810      Cu  0.09732222  0.92819011  0.81447974     1.04300
C811        C  0.08516036  0.87546368  0.81601068     0.93300
C812        C  0.12328335  0.96828615  0.78993699     0.92400
C813        C  0.14923121  0.93837257  0.81703886     0.84600
C814        C  0.05911433  0.90554163  0.78857471     0.90900
N815        N  0.24837321  0.55430458  0.09432081    -0.27200
N816        N  0.26109662  0.55820955  0.10807700    -0.35100
C817        C  0.25129631  0.56621368  0.11942341     0.01100
C818        C  0.23125950  0.56712810  0.11250517     0.07100
C819        C  0.22983835  0.55941764  0.09659157    -0.06000
H820        H  0.25782363  0.57035767  0.13189373     0.07800
H821        H  0.21622039  0.55742041  0.08739878     0.09000
Cu822      Cu  0.29049681  0.55164683  0.11101288     0.44200
Cu823      Cu  0.25697650  0.54207555  0.07331483     0.42000
Cu824      Cu  0.30750195  0.52797629  0.07639653     0.43900
N825        N  0.32147047  0.54711339  0.11071876    -0.34600
N826        N  0.32789643  0.53860570  0.09804990    -0.28900
C827        C  0.35085510  0.54126924  0.10103441    -0.05000
C828        C  0.35917947  0.55201247  0.11628690     0.07200
C829        C  0.34004200  0.55531373  0.12212634     0.01000
H830        H  0.36144165  0.53721830  0.09235871     0.08700
H831        H  0.34041387  0.56459425  0.13334793     0.07800
N832        N  0.28749468  0.02434653  0.05526981    -0.36100
N833        N  0.26961851  0.03006261  0.05410325    -0.28300
C834        C  0.26169906  0.02724903  0.03862136    -0.03500
C835        C  0.27487583  0.01891667  0.02961082     0.05100
C836        C  0.29129439  0.01759422  0.04056061     0.03200
H837        H  0.24799085  0.03181069  0.03423412     0.08300
H838        H  0.30523288  0.01239896  0.03799874     0.07100
N839        N  0.28845968  0.94885369  0.84555108    -0.27200
N840        N  0.27373034  0.94211287  0.83242872    -0.35100
C841        C  0.28283182  0.93317060  0.82121867     0.01100
C842        C  0.30441529  0.93447206  0.82757686     0.07100
C843        C  0.30751230  0.94454585  0.84300848    -0.06000
H844        H  0.27461654  0.92666701  0.80923772     0.07800
H845        H  0.32258036  0.94863454  0.85169608     0.09000
Cu846      Cu  0.24243998  0.94602664  0.83015773     0.44200
Cu847      Cu  0.28174392  0.96370630  0.86609210     0.42000
Cu848      Cu  0.22844568  0.97413105  0.86369227     0.43900
N849        N  0.21125558  0.95030778  0.83060572    -0.34600
N850        N  0.20581991  0.96037590  0.84289130    -0.28900
C851        C  0.18316012  0.95837282  0.83983993    -0.05000
C852        C  0.17410281  0.94657227  0.82489151     0.07200
C853        C  0.19240414  0.94181374  0.81937295     0.01000
H854        H  0.17362395  0.96430306  0.84809954     0.08700
H855        H  0.19157103  0.93193781  0.80830173     0.07800
N856        N  0.25166250  0.98213120  0.88398213    -0.36100
N857        N  0.27057378  0.97781570  0.88494598    -0.28300
C858        C  0.28011245  0.98286388  0.90012069    -0.03500
C859        C  0.26680985  0.99104987  0.90909420     0.05100
C860        C  0.24879589  0.99018234  0.89850194     0.03200
H861        H  0.29519461  0.98015626  0.90441006     0.08300
H862        H  0.23377403  0.99377726  0.90133303     0.07100
N863        N  0.46602609  0.76938464  0.09428326    -0.27200
N864        N  0.45913403  0.75468560  0.10745761    -0.35100
C865        C  0.45077331  0.76420492  0.11875442     0.01100
C866        C  0.45253154  0.78599237  0.11241693     0.07100
C867        C  0.46235707  0.78884705  0.09689963    -0.06000
H868        H  0.44393153  0.75584719  0.13069683     0.07800
H869        H  0.46629431  0.80375237  0.08812267     0.09000
Cu870      Cu  0.46067040  0.72202315  0.10961076     0.44200
Cu871      Cu  0.97883131  0.76124364  0.07325653     0.42000
Cu872      Cu  0.98098008  0.70285728  0.07453409     0.43900
N873        N  0.46154953  0.68888346  0.10885533    -0.34600
N874        N  0.46893948  0.68170989  0.09598510    -0.28900
C875        C  0.46581141  0.65857346  0.09905405    -0.05000
C876        C  0.45599851  0.65094246  0.11459600     0.07200
C877        C  0.45355337  0.67059446  0.12047002     0.01000
H878        H  0.46963564  0.64775825  0.09043272     0.08700
H879        H  0.44576383  0.67119377  0.13210575     0.07800
N880        N  0.98923775  0.72583953  0.05406437    -0.36100
N881        N  0.98815202  0.74682415  0.05355317    -0.28300
C882        C  0.99302708  0.75621105  0.03831794    -0.03500
C883        C  0.99722618  0.74029719  0.02877848     0.05100
C884        C  0.99499718  0.72143915  0.03919164     0.03200
H885        H  0.99337751  0.77331590  0.03447558     0.08300
H886        H  0.99669095  0.70526732  0.03609365     0.07100
N887        N  0.06768115  0.73236774  0.84411014    -0.27200
N888        N  0.07593836  0.74772778  0.83120202    -0.35100
C889        C  0.08493756  0.73837349  0.82020858     0.01100
C890        C  0.08214235  0.71603340  0.82650140     0.07100
C891        C  0.07108927  0.71271172  0.84165519    -0.06000
H892        H  0.09290961  0.74719919  0.80850489     0.07800
H893        H  0.06618194  0.69737355  0.85033019     0.09000
Cu894      Cu  0.07478603  0.78074540  0.82906583     0.44200
Cu895      Cu  0.05369742  0.73991136  0.86470679     0.42000
Cu896      Cu  0.05107932  0.79794123  0.86351319     0.43900
N897        N  0.07186283  0.81282484  0.82950639    -0.34600
N898        N  0.06306780  0.81913179  0.84208760    -0.28900
C899        C  0.06540709  0.84190113  0.83896207    -0.05000
C900        C  0.07616870  0.85023413  0.82367761     0.07200
C901        C  0.07995421  0.83132748  0.81801761     0.01000
H902        H  0.06073487  0.85218338  0.84747446     0.08700
H903        H  0.08904334  0.83158576  0.80670762     0.07800
N904        N  0.04433812  0.77570512  0.88414408    -0.36100
N905        N  0.04518744  0.75459193  0.88452259    -0.28300
C906        C  0.04120207  0.74555350  0.89980865    -0.03500
C907        C  0.03802261  0.76193144  0.90957692     0.05100
C908        C  0.03981287  0.78066576  0.89920364     0.03200
H909        H  0.04123459  0.72864047  0.90359541     0.08300
H910        H  0.03791354  0.79669824  0.90230778     0.07100
O911        O  0.38979539  0.57238611  0.13764348    -0.72900
O912        O  0.46047132  0.60171766  0.15732761    -0.73900
O913        O  0.43784970  0.62158199  0.13684879    -0.62500
O914        O  0.41244021  0.55256842  0.15799026    -0.70900
O915        O  0.42430412  0.54031844  0.13616802    -0.70500
O916        O  0.44993141  0.60925087  0.11517564    -0.61700
O917        O  0.47233734  0.58918408  0.13564763    -0.74200
O918        O  0.40178845  0.56013674  0.11588534    -0.73000
Cu919      Cu  0.42471446  0.58752135  0.14821510     1.04600
Cu920      Cu  0.43752972  0.57432637  0.12495814     1.04300
C921        C  0.38470869  0.56177154  0.12366339     0.93300
C922        C  0.47736861  0.59962020  0.14968411     0.92400
C923        C  0.44768250  0.62616827  0.12262191     0.84600
C924        C  0.41458284  0.53567236  0.15040856     0.90900
N925        N  0.15787841  0.94123399  0.42866952    -0.27200
N926        N  0.14761538  0.92770109  0.44216545    -0.35100
C927        C  0.16626296  0.93630729  0.45352868     0.01100
C928        C  0.18941107  0.45631236  0.44688037     0.07100
C929        C  0.18347634  0.45911412  0.43113695    -0.06000
H930        H  0.16335437  0.92791675  0.46550492     0.07800
H931        H  0.19695535  0.47231965  0.42195089     0.09000
Cu932      Cu  0.11017146  0.89552103  0.44396978     0.44200
Cu933      Cu  0.13708005  0.93205472  0.40717296     0.42000
Cu934      Cu  0.07527344  0.86815994  0.40676655     0.43900
N935        N  0.07762042  0.85835061  0.44216905    -0.34600
N936        N  0.06481750  0.84786963  0.42851063    -0.28900
C937        C  0.04689561  0.82231646  0.43103385    -0.05000
C938        C  0.04892858  0.81663611  0.44698749     0.07200
C939        C  0.06849066  0.83987959  0.45369916     0.03700
H940        H  0.53451192  0.80863190  0.42171415     0.08700
H941        H  0.07656383  0.84287847  0.46576711     0.07800
N942        N  0.09115940  0.89255998  0.38677428    -0.36100
N943        N  0.11325528  0.91592313  0.38697991    -0.28300
C944        C  0.11846756  0.92594564  0.37189896    -0.03500
C945        C  0.09871591  0.90805509  0.36173119     0.05100
C946        C  0.08187817  0.88705682  0.37154707     0.03200
H947        H  0.13610795  0.94423574  0.36844162     0.08300
H948        H  0.06452575  0.86870325  0.36779061     0.07100
N949        N  0.04040723  0.88264355  0.17348989    -0.27200
N950        N  0.04987207  0.89706498  0.16023228    -0.35100
C951        C  0.03042778  0.88966642  0.14960490     0.01100
C952        C  0.50760550  0.86959548  0.15650518     0.07100
C953        C  0.51454344  0.86542826  0.17160006    -0.06000
H954        H  0.03259182  0.89905038  0.13805165     0.07800
H955        H  0.50159376  0.85184178  0.18083013     0.09000
Cu956      Cu  0.08717840  0.92933022  0.15813838     0.44200
Cu957      Cu  0.06233824  0.89020676  0.19430278     0.42000
Cu958      Cu  0.12380213  0.95423664  0.19504229     0.43900
N959        N  0.11904074  0.96678722  0.16048087    -0.34600
N960        N  0.13248498  0.97642778  0.17404521    -0.28900
C961        C  0.14969556  0.50230559  0.17209931    -0.05000
C962        C  0.14655217  0.50904779  0.15663624     0.07200
C963        C  0.12704839  0.98608128  0.14961426     0.01000
H964        H  0.16256050  0.51540536  0.18149755     0.08700
H965        H  0.11838977  0.98372119  0.13778603     0.07800
N966        N  0.10834923  0.92904221  0.21483247    -0.36100
N967        N  0.08605145  0.90585843  0.21452552    -0.28300
C968        C  0.08033317  0.89584367  0.22960185    -0.03500
C969        C  0.10006062  0.91340066  0.23990548     0.05100
C970        C  0.11742459  0.93427965  0.23012868     0.03200
H971        H  0.06250593  0.87759644  0.23294177     0.08300
H972        H  0.13452209  0.95267454  0.23400401     0.07100
N973        N  0.07797245  0.71544180  0.42680004    -0.27200
N974        N  0.09315288  0.72331786  0.43975373    -0.35100
C975        C  0.08375263  0.73204350  0.45086410     0.01100
C976        C  0.06150723  0.72938592  0.44461617     0.07100
C977        C  0.05830953  0.71880145  0.42935303    -0.06000
H978        H  0.09221847  0.73926906  0.46272585     0.07800
H979        H  0.04278383  0.71370284  0.42080984     0.09000
Cu980      Cu  0.12525908  0.72108035  0.44223263     0.44200
Cu981      Cu  0.08480806  0.70055373  0.40642264     0.42000
Cu982      Cu  0.14131380  0.69559106  0.40847278     0.43900
N983        N  0.15677395  0.71761352  0.44205476    -0.34600
N984        N  0.16293605  0.70845206  0.42962236    -0.28900
C985        C  0.18559366  0.71063123  0.43283688    -0.05000
C986        C  0.19389932  0.72164749  0.44802782     0.07200
C987        C  0.17517215  0.72575178  0.45355709     0.01000
H988        H  0.19571659  0.70549902  0.42449480     0.08700
H989        H  0.17544947  0.73502704  0.46476911     0.07800
N990        N  0.11775581  0.68609587  0.38826288    -0.36100
N991        N  0.09737220  0.68816266  0.38746441    -0.28300
C992        C  0.08738800  0.68205795  0.37241615    -0.03500
C993        C  0.10199188  0.67551440  0.36338738     0.05100
C994        C  0.12119976  0.67848004  0.37376546     0.03200
H995        H  0.07099776  0.68277169  0.36828459     0.08300
H996        H  0.13715586  0.67631140  0.37083987     0.07100
N997        N  0.11515331  0.60813334  0.17887847    -0.27200
N998        N  0.10102341  0.60229173  0.16554291    -0.35100
C999        C  0.11093551  0.59460718  0.15406352     0.01100
C1000       C  0.13245419  0.59586564  0.16046834     0.07100
C1001       C  0.13462605  0.60450244  0.17621706    -0.06000
H1002       H  0.10340890  0.58915918  0.14184922     0.07800
H1003       H  0.14939180  0.60816442  0.18501864     0.09000
Cu1004     Cu  0.06985142  0.60631346  0.16321537     0.44200
Cu1005     Cu  0.10731789  0.62115626  0.19981188     0.42000
Cu1006     Cu  0.05433082  0.63206614  0.19721226     0.43900
N1007       N  0.03923001  0.61141261  0.16331929    -0.34600
N1008       N  0.03339108  0.62086045  0.17575744    -0.28900
C1009       C  0.01100560  0.61928566  0.17253442    -0.05000
C1010       C  0.00250919  0.60837160  0.15732352     0.07200
C1011       C  0.02088269  0.60370849  0.15181699     0.01000
H1012       H  0.00099240  0.62440955  0.18096643     0.08700
H1013       H  0.02021193  0.59405866  0.14067475     0.07800
N1014       N  0.07510307  0.63656253  0.21813184    -0.36100
N1015       N  0.09424448  0.63257889  0.21907715    -0.28300
C1016       C  0.10242278  0.63570653  0.23452098    -0.03500
C1017       C  0.08744372  0.64151920  0.24375981     0.05100
C1018       C  0.07052204  0.64220827  0.23296620     0.03200
H1019       H  0.11760531  0.63312327  0.23879111     0.08300
H1020       H  0.05578510  0.64623464  0.23567864     0.07100
O1021       O  0.15114805  0.53828506  0.13598476    -0.72900
O1022       O  0.18571051  0.60950941  0.11586343    -0.73900
O1023       O  0.19281021  0.56758760  0.11392936    -0.62500
O1024       O  0.14391720  0.58031777  0.13788486    -0.70900
O1025       O  0.17151228  0.59660082  0.15866324    -0.70500
O1026       O  0.22003889  0.58319744  0.13490611    -0.61700
O1027       O  0.21333148  0.62550581  0.13663341    -0.74200
O1028       O  0.17838901  0.55463638  0.15693214    -0.73000
Cu1029     Cu  0.16737953  0.57332367  0.12519575     1.04600
Cu1030     Cu  0.19681142  0.59061119  0.14748943     1.04300
C1031       C  0.15932663  0.53521941  0.14952925     0.93300
C1032       C  0.20513929  0.62876145  0.12316599     0.92400
C1033       C  0.21397652  0.57308235  0.12077290     0.84600
C1034       C  0.15007189  0.59058702  0.15197516     0.90900
O1035       O  0.05087964  0.74615198  0.46682024    -0.72900
O1036       O  0.00311797  0.76007749  0.49079699    -0.73900
O1037       O  0.00974225  0.71800965  0.48924887    -0.62500
O1038       O  0.04414377  0.78835783  0.46827002    -0.70900
O1039       O  0.01641999  0.77133231  0.44757311    -0.70500
O1040       O  0.48163371  0.70131513  0.46872932    -0.61700
O1041       O  0.47528777  0.74382412  0.47012613    -0.74200
O1042       O  0.02273978  0.72909739  0.44632862    -0.73000
Cu1043     Cu  0.02800886  0.75378075  0.47948814     1.04600
Cu1044     Cu  0.49799347  0.73576769  0.45748637     1.04300
C1045       C  0.04427572  0.73525472  0.45292485     0.93300
C1046       C  0.48174349  0.75431419  0.48415361     0.92400
C1047       C  0.49012597  0.69855911  0.48221672     0.84600
C1048       C  0.03579316  0.79091637  0.45465438     0.90900
N1049       N  0.44721729  0.77211305  0.51120731    -0.27200
N1050       N  0.43385732  0.76760111  0.49764496    -0.35100
C1051       C  0.44379473  0.76011491  0.48606872     0.01100
C1052       C  0.46456143  0.76015749  0.49262278     0.07100
C1053       C  0.46630062  0.76790180  0.50855582    -0.06000
H1054       H  0.43671194  0.75548542  0.47372664     0.07800
H1055       H  0.98036296  0.77032236  0.51754212     0.09000
Cu1056     Cu  0.40328431  0.77241648  0.49511728     0.44200
Cu1057     Cu  0.43864517  0.78352897  0.53263426     0.42000
Cu1058     Cu  0.38656258  0.79513311  0.53015484     0.43900
N1059       N  0.37220220  0.77668344  0.49579179    -0.34600
N1060       N  0.36588060  0.78488901  0.50865739    -0.28900
C1061       C  0.34320234  0.78285777  0.50576973    -0.05000
C1062       C  0.33499867  0.77290233  0.49034956     0.07200
C1063       C  0.35385384  0.76931428  0.48433526     0.01000
H1064       H  0.33284600  0.78706057  0.51453566     0.08700
H1065       H  0.35356319  0.76066098  0.47286103     0.07800
N1066       N  0.40717618  0.79959413  0.55111007    -0.36100
N1067       N  0.42559905  0.79460074  0.55219183    -0.28300
C1068       C  0.43396862  0.79807487  0.56762838    -0.03500
C1069       C  0.42013557  0.80562841  0.57662518     0.05100
C1070       C  0.40352673  0.80664122  0.56575636     0.03200
H1071       H  0.44920220  0.79560104  0.57192758     0.08300
H1072       H  0.38950805  0.81172612  0.56835346     0.07100
N1073       N  0.41660794  0.88922345  0.75995319    -0.27200
N1074       N  0.43188039  0.89662950  0.77286220    -0.35100
C1075       C  0.42220736  0.90433577  0.78448190     0.01100
C1076       C  0.39967273  0.90157491  0.77867165     0.07100
C1077       C  0.39661321  0.89193377  0.76308508    -0.06000
H1078       H  0.43086977  0.91123346  0.79633173     0.07800
H1079       H  0.38107299  0.88728006  0.75465346     0.09000
Cu1080     Cu  0.46497141  0.89574911  0.77452378     0.44200
Cu1081     Cu  0.42429991  0.87621501  0.73876125     0.42000
Cu1082     Cu  0.48380190  0.87528627  0.73971116     0.43900
N1083       N  0.49755428  0.89387519  0.77409232    -0.34600
N1084       N  0.50475782  0.88644744  0.76126289    -0.28900
C1085       C  0.02742428  0.88863530  0.76459338    -0.05000
C1086       C  0.03467732  0.89785999  0.78027744     0.07200
C1087       C  0.51529406  0.90093665  0.78593578     0.01000
H1088       H  0.03820846  0.88459758  0.75607052     0.08700
H1089       H  0.51455504  0.90857069  0.79758222     0.07800
N1090       N  0.45987824  0.86588083  0.71955013    -0.36100
N1091       N  0.43829997  0.86597861  0.71917629    -0.28300
C1092       C  0.42803778  0.85947190  0.70416592    -0.03500
C1093       C  0.44411180  0.85547795  0.69458573     0.05100
C1094       C  0.46390934  0.85940264  0.70481038     0.03200
H1095       H  0.41050726  0.85835666  0.70039449     0.08300
H1096       H  0.48008308  0.85763942  0.70180605     0.07100
O1097       O  0.35564949  0.94458648  0.78287963    -0.72900
O1098       O  0.31999310  0.87403039  0.80365337    -0.73900
O1099       O  0.31441492  0.91710192  0.80530245    -0.62500
O1100       O  0.36108005  0.90168828  0.78101254    -0.70900
O1101       O  0.38931760  0.91786020  0.80146218    -0.70500
O1102       O  0.34250315  0.93327017  0.82583254    -0.61700
O1103       O  0.34818472  0.89044699  0.82413573    -0.74200
O1104       O  0.38373244  0.96082733  0.80342757    -0.73000
Cu1105     Cu  0.33674839  0.90873153  0.79251584     1.04600
Cu1106     Cu  0.36695414  0.92617679  0.81442341     1.04300
C1107       C  0.37532424  0.96385369  0.78999632     0.93300
C1108       C  0.32847304  0.87111890  0.81711208     0.92400
C1109       C  0.32118002  0.92785521  0.81924100     0.84600
C1110       C  0.38256909  0.90734501  0.78743635     0.90900
N1111       N  0.36377772  0.55043262  0.50959976    -0.27200
N1112       N  0.37378830  0.56399641  0.49608862    -0.35100
C1113       C  0.35499381  0.55517735  0.48482265     0.01100
C1114       C  0.33204045  0.53501372  0.49155655     0.07100
C1115       C  0.33821133  0.53234088  0.50725339    -0.06000
H1116       H  0.35769807  0.56343936  0.47282073     0.07800
H1117       H  0.32493614  0.01906352  0.51647436     0.09000
Cu1118     Cu  0.41134183  0.59595059  0.49397139     0.44200
Cu1119     Cu  0.38484729  0.55985146  0.53091563     0.42000
Cu1120     Cu  0.44893558  0.62195115  0.53026827     0.43900
N1121       N  0.44593995  0.63174138  0.49504088    -0.34600
N1122       N  0.45990729  0.64169401  0.50838963    -0.28900
C1123       C  0.97904217  0.66679782  0.50561298    -0.05000
C1124       C  0.97662654  0.67276952  0.48980827     0.07200
C1125       C  0.45558594  0.65011325  0.48344023     0.01000
H1126       H  0.99235734  0.68017360  0.51475512     0.08700
H1127       H  0.44673408  0.64766437  0.47166868     0.07800
N1128       N  0.43144822  0.59952729  0.55078947    -0.36100
N1129       N  0.40849486  0.57698338  0.55098932    -0.28300
C1130       C  0.40263182  0.56813077  0.56631309    -0.03500
C1131       C  0.42265739  0.58618800  0.57627382     0.05100
C1132       C  0.44072837  0.60565056  0.56598913     0.03200
H1133       H  0.38514102  0.54988758  0.56983866     0.08300
H1134       H  0.45908458  0.62329456  0.56934287     0.07100
N1135       N  0.40421911  0.52141066  0.76450962    -0.27200
N1136       N  0.41858045  0.53118243  0.77772598    -0.35100
C1137       C  0.40972426  0.51243636  0.78905723     0.01100
C1138       C  0.38877408  0.98976940  0.78261671     0.07100
C1139       C  0.38562846  0.99608337  0.76707754    -0.06000
H1140       H  0.41886094  0.51477114  0.80071129     0.07800
H1141       H  0.37204177  0.98290134  0.75797021     0.09000
Cu1142     Cu  0.45228991  0.56769416  0.77880714     0.44200
Cu1143     Cu  0.41387090  0.54181863  0.74297621     0.42000
Cu1144     Cu  0.47852680  0.60309368  0.74149298     0.43900
N1145       N  0.48910517  0.60078787  0.77667325    -0.34600
N1146       N  0.99911920  0.61398113  0.76304154    -0.28900
C1147       C  0.02445473  0.63278644  0.76550054    -0.05000
C1148       C  0.03045322  0.63093516  0.78139980     0.07200
C1149       C  0.00765058  0.61055777  0.78812470     0.01000
H1150       H  0.03778145  0.64577664  0.75620266     0.08700
H1151       H  0.00500203  0.60255712  0.80020859     0.07800
N1152       N  0.45421904  0.58576298  0.72169930    -0.36100
N1153       N  0.43078461  0.56379999  0.72230933    -0.28300
C1154       C  0.42075358  0.55750199  0.70729172    -0.03500
C1155       C  0.43890675  0.57618886  0.69668000     0.05100
C1156       C  0.45971561  0.59398422  0.70624922     0.03200
H1157       H  0.40167410  0.54054668  0.70439491     0.08300
H1158       H  0.47785834  0.61136381  0.70222203     0.07100
O1159       O  0.39150474  0.80079476  0.13646045    -0.72900
O1160       O  0.46222045  0.83722357  0.15683819    -0.73900
O1161       O  0.41902079  0.84234870  0.15861080    -0.62500
O1162       O  0.43500533  0.79589195  0.13467129    -0.70900
O1163       O  0.45088016  0.82376150  0.11397309    -0.70500
O1164       O  0.43453713  0.87006027  0.13782712    -0.61700
O1165       O  0.47816466  0.86515015  0.13615854    -0.74200
O1166       O  0.40736836  0.82848156  0.11566185    -0.73000
Cu1167     Cu  0.42634030  0.81806768  0.14735728     1.04600
Cu1168     Cu  0.44331993  0.84790360  0.12519742     1.04300
C1169       C  0.38824077  0.80882809  0.12293723     0.93300
C1170       C  0.48141889  0.85674948  0.14954476     0.92400
C1171       C  0.42406000  0.86343556  0.15187744     0.84600
C1172       C  0.44573459  0.80262749  0.12069005     0.90900
N1173       N  0.29750102  0.93501574  0.42900278    -0.27200
N1174       N  0.29219431  0.92127949  0.44250614    -0.35100
C1175       C  0.28301098  0.93026581  0.45364738     0.01100
C1176       C  0.28264489  0.95070108  0.44684141     0.07100
C1177       C  0.29206109  0.95330415  0.43124880    -0.06000
H1178       H  0.27701854  0.92245659  0.46577284     0.07800
H1179       H  0.29442837  0.96719283  0.42212562     0.09000
Cu1180     Cu  0.29661098  0.89031188  0.44512147     0.44200
Cu1181     Cu  0.31055090  0.92740758  0.40789260     0.42000
Cu1182     Cu  0.31825304  0.87283026  0.40968366     0.43900
N1183       N  0.29840378  0.85760987  0.44388865    -0.34600
N1184       N  0.30609699  0.85101714  0.43088332    -0.28900
C1185       C  0.30254891  0.82755856  0.43343101    -0.05000
C1186       C  0.29212318  0.81906641  0.44876874     0.07200
C1187       C  0.28982964  0.83860542  0.45507712     0.01000
H1188       H  0.30625324  0.81701818  0.42452844     0.08700
H1189       H  0.28143167  0.83849245  0.46662710     0.07800
N1190       N  0.32538173  0.89525634  0.38908269    -0.36100
N1191       N  0.32198554  0.91478191  0.38829357    -0.28300
C1192       C  0.32661750  0.92408965  0.37302912    -0.03500
C1193       C  0.33316695  0.90965959  0.36378460     0.05100
C1194       C  0.33247849  0.89176755  0.37439124     0.03200
H1195       H  0.32533923  0.94017840  0.36899042     0.08300
H1196       H  0.33616971  0.87682658  0.37153540     0.07100
N1197       N  0.40525586  0.89721249  0.17888373    -0.27200
N1198       N  0.40971393  0.91062451  0.16532800    -0.35100
C1199       C  0.41729189  0.90080121  0.15372331     0.01100
C1200       C  0.41744690  0.88011588  0.16026644     0.07100
C1201       C  0.40964052  0.87826711  0.17620948    -0.06000
H1202       H  0.42215704  0.90809867  0.14142711     0.07800
H1203       H  0.40756286  0.86439223  0.18523951     0.09000
Cu1204     Cu  0.40560422  0.94174098  0.16298887     0.44200
Cu1205     Cu  0.39454386  0.90602366  0.20050825     0.42000
Cu1206     Cu  0.38771982  0.96132922  0.19877738     0.43900
N1207       N  0.40256158  0.97363020  0.16379911    -0.34600
N1208       N  0.39596502  0.98089007  0.17698722    -0.28900
C1209       C  0.39808763  0.00358145  0.17405551    -0.05000
C1210       C  0.40649817  0.01088770  0.15826199     0.07200
C1211       C  0.40905839  0.99145991  0.15208387     0.01000
H1212       H  0.39505991  0.01456297  0.18300045     0.08700
H1213       H  0.41637977  0.99097160  0.14024662     0.07800
N1214       N  0.38364583  0.94085916  0.21967055    -0.36100
N1215       N  0.38612040  0.92074762  0.22043292    -0.28300
C1216       C  0.38276656  0.91244233  0.23589196    -0.03500
C1217       C  0.37832993  0.92834760  0.24528743     0.05100
C1218       C  0.37870366  0.94591735  0.23455440     0.03200
H1219       H  0.38372995  0.89619664  0.24000955     0.08300
H1220       H  0.37526519  0.96105820  0.23726334     0.07100
O1221       O  0.28715880  0.50084532  0.49077341    -0.72900
O1222       O  0.21778917  0.96221631  0.46839278    -0.73900
O1223       O  0.26277867  0.95933252  0.46838136    -0.62500
O1224       O  0.24253938  0.00365563  0.49084518    -0.70900
O1225       O  0.25894176  0.53172581  0.47025768    -0.70500
O1226       O  0.27890573  0.48724238  0.44771003    -0.61700
O1227       O  0.23432734  0.49026457  0.44779107    -0.74200
O1228       O  0.30361407  0.52869990  0.47006998    -0.73000
Cu1229     Cu  0.25193484  0.98046661  0.48029784     1.04600
Cu1230     Cu  0.26953310  0.51049160  0.45824803     1.04300
C1231       C  0.30637970  0.52083168  0.48380562     0.93300
C1232       C  0.21505271  0.97025186  0.45469957     0.92400
C1233       C  0.27429347  0.96644131  0.45464091     0.84600
C1234       C  0.24754681  0.52467515  0.48403688     0.90900
N1235       N  0.22599179  0.55710033  0.51010691    -0.27200
N1236       N  0.23315645  0.57201638  0.49701551    -0.35100
C1237       C  0.24188580  0.56275214  0.48578361     0.01100
C1238       C  0.24004122  0.54090088  0.49208132     0.07100
C1239       C  0.22985221  0.53777913  0.50750378    -0.06000
H1240       H  0.24911257  0.57137327  0.47393759     0.07800
H1241       H  0.22588609  0.52283539  0.51625960     0.09000
Cu1242     Cu  0.23150541  0.60461159  0.49486470     0.44200
Cu1243     Cu  0.21266780  0.56460752  0.53111936     0.42000
Cu1244     Cu  0.21079441  0.62304328  0.52989912     0.43900
N1245       N  0.23037399  0.63759654  0.49569212    -0.34600
N1246       N  0.22281143  0.64453546  0.50858615    -0.28900
C1247       C  0.22628333  0.66788272  0.50573495    -0.05000
C1248       C  0.23654665  0.67591112  0.49030987     0.07200
C1249       C  0.23881781  0.65623437  0.48427320     0.01000
H1250       H  0.22263725  0.67866879  0.51447965     0.08700
H1251       H  0.24704474  0.65596934  0.47272652     0.07800
N1252       N  0.20299800  0.60026776  0.55040386    -0.36100
N1253       N  0.20352957  0.57897011  0.55090238    -0.28300
C1254       C  0.19903846  0.56986295  0.56621696    -0.03500
C1255       C  0.19594689  0.58647288  0.57582447     0.05100
C1256       C  0.19824383  0.60531176  0.56536041     0.03200
H1257       H  0.19898235  0.55297861  0.57016412     0.08300
H1258       H  0.19690105  0.62172344  0.56839789     0.07100
N1259       N  0.13465496  0.60767102  0.76165594    -0.27200
N1260       N  0.12998623  0.59400533  0.77512181    -0.35100
C1261       C  0.12172136  0.60323895  0.78668846     0.01100
C1262       C  0.12136114  0.62384494  0.78024247     0.07100
C1263       C  0.12974573  0.62624173  0.76437480    -0.06000
H1264       H  0.11652634  0.59558171  0.79891055     0.07800
H1265       H  0.13181149  0.64020854  0.75541887     0.09000
Cu1266     Cu  0.13471695  0.56332085  0.77742075     0.44200
Cu1267     Cu  0.14613241  0.59938224  0.74008922     0.42000
Cu1268     Cu  0.15605508  0.54565867  0.74264571     0.43900
N1269       N  0.13797473  0.53158128  0.77700908    -0.34600
N1270       N  0.14588452  0.52493502  0.76415574    -0.28900
C1271       C  0.14307094  0.50189139  0.76704120    -0.05000
C1272       C  0.13285658  0.49374620  0.78246044     0.07200
C1273       C  0.12997223  0.51306150  0.78845689     0.01000
H1274       H  0.14671999  0.49118758  0.75824229     0.08700
H1275       H  0.12125147  0.51293948  0.79989701     0.07800
N1276       N  0.15915357  0.56544549  0.72154562    -0.36100
N1277       N  0.15488825  0.58437427  0.72041402    -0.28300
C1278       C  0.15668893  0.59137367  0.70474532    -0.03500
C1279       C  0.16233526  0.57608077  0.69567753     0.05100
C1280       C  0.16401565  0.56009552  0.70671805     0.03200
H1281       H  0.15423182  0.60654099  0.70032002     0.08300
H1282       H  0.16793016  0.54522324  0.70412273     0.07100
O1283       O  0.05871807  0.63696055  0.80283135    -0.72900
O1284       O  0.12765971  0.67398875  0.82524809    -0.73900
O1285       O  0.08384380  0.67819914  0.82534894    -0.62500
O1286       O  0.10286904  0.63298374  0.80244126    -0.70900
O1287       O  0.11909897  0.66111251  0.78188186    -0.70500
O1288       O  0.10095209  0.70645255  0.80488453    -0.61700
O1289       O  0.14475787  0.70193349  0.80461075    -0.74200
O1290       O  0.07535345  0.66519042  0.78232052    -0.73000
Cu1291     Cu  0.09263914  0.65449248  0.81467673     1.04600
Cu1292     Cu  0.11067088  0.68471628  0.79273825     1.04300
C1293       C  0.05605634  0.64513464  0.78919066     0.93300
C1294       C  0.14716850  0.69373448  0.81833452     0.92400
C1295       C  0.08935624  0.69945431  0.81858911     0.84600
C1296       C  0.11402876  0.64001247  0.78857389     0.90900
C1297       C  0.19168793  0.58470291  0.59351666    -0.11900
C1298       C  0.20612467  0.60669985  0.60366807     0.03600
C1299       C  0.20095747  0.60430978  0.62029319    -0.12500
C1300       C  0.18176230  0.58024585  0.62708894     0.18400
C1301       C  0.16771952  0.55815295  0.61707487    -0.09500
C1302       C  0.17283620  0.56047883  0.60041833    -0.02500
H1303       H  0.21209853  0.62130257  0.62801564     0.04900
C1304       C  0.17668309  0.57869218  0.64465606     0.20400
H1305       H  0.16179744  0.54336995  0.59279011     0.10100
C1306       C  0.15370575  0.57614709  0.65015712    -0.15800
C1307       C  0.14859531  0.57524081  0.66675069     0.03100
C1308       C  0.16678612  0.57704233  0.67808096    -0.11200
C1309       C  0.18956300  0.57918425  0.67253270    -0.01200
C1310       C  0.19469103  0.58018638  0.65596048    -0.06300
H1311       H  0.13966171  0.57475396  0.64148575     0.06100
H1312       H  0.20355373  0.58033278  0.68114202     0.09500
Br1313     Br  0.14183526  0.52443343  0.62571644    -0.06000
Br1314     Br  0.23441256  0.63999346  0.59585475    -0.03000
Br1315     Br  0.11574757  0.56965037  0.67319224    -0.00100
Br1316     Br  0.22623146  0.58307206  0.64931518    -0.04500
C1317       C  0.33971167  0.91257120  0.34636305    -0.11900
C1318       C  0.32371254  0.91378988  0.33453445     0.03600
C1319       C  0.33055817  0.91622787  0.31814850    -0.12500
C1320       C  0.35315559  0.91746067  0.31332432     0.18400
C1321       C  0.36911487  0.91621498  0.32505567    -0.09500
C1322       C  0.36222207  0.91357868  0.34143674    -0.02500
H1323       H  0.31809831  0.91692744  0.30910582     0.04900
C1324       C  0.35976892  0.92002004  0.29597258     0.20400
H1325       H  0.37463048  0.91257799  0.35038384     0.10100
C1326       C  0.37719256  0.94490889  0.28946673    -0.15800
C1327       C  0.38385679  0.94809054  0.27303742     0.03100
C1328       C  0.37276819  0.92599777  0.26283186    -0.11200
C1329       C  0.35567459  0.90104360  0.26949042    -0.01200
C1330       C  0.34905519  0.89795135  0.28592101    -0.06300
H1331       H  0.38581191  0.96192235  0.29726739     0.06100
H1332       H  0.34706347  0.88389905  0.26182772     0.09500
Br1333     Br  0.40034139  0.91791309  0.31913801    -0.06000
Br1334     Br  0.29137552  0.91027191  0.33982822    -0.03000
Br1335     Br  0.40956455  0.98281491  0.26564534    -0.00100
Br1336     Br  0.32540512  0.86331449  0.29417113    -0.04500
C1337       C  0.42496506  0.58498604  0.59400798    -0.11900
C1338       C  0.40343481  0.57611962  0.60453444     0.03600
C1339       C  0.40674110  0.57516237  0.62120697    -0.12500
C1340       C  0.43122763  0.58326649  0.62764677     0.18400
C1341       C  0.45278811  0.59243150  0.61727667    -0.09500
C1342       C  0.44955482  0.59329743  0.60058452    -0.02500
H1343       H  0.39019316  0.56840917  0.62925205     0.04900
C1344       C  0.43370300  0.58176284  0.64524947     0.20400
H1345       H  0.46627052  0.60016089  0.59269510     0.10100
C1346       C  0.42514720  0.55751397  0.65228400    -0.15800
C1347       C  0.42663739  0.55513614  0.66902005     0.03100
C1348       C  0.43675379  0.57742818  0.67896322    -0.11200
C1349       C  0.44543222  0.60172599  0.67180606    -0.01200
C1350       C  0.44379512  0.60398372  0.65507962    -0.06300
H1351       H  0.41746585  0.54039687  0.64467017     0.06100
H1352       H  0.45312916  0.61897849  0.67928993     0.09500
Br1353     Br  0.98678127  0.60349711  0.62538173    -0.06000
Br1354     Br  0.36960520  0.56706816  0.59729421    -0.03000
Br1355     Br  0.41625241  0.52135037  0.67720299    -0.00100
Br1356     Br  0.45484847  0.63753574  0.64619792    -0.04500
C1357       C  0.42312066  0.81238691  0.59396072    -0.11900
C1358       C  0.42113382  0.79504371  0.60603105     0.03600
C1359       C  0.42413082  0.80231101  0.62235299    -0.12500
C1360       C  0.42906533  0.82670052  0.62687625     0.18400
C1361       C  0.43091799  0.84396305  0.61480762    -0.09500
C1362       C  0.42773044  0.83663075  0.59850942    -0.02500
H1363       H  0.42253435  0.78886670  0.63157670     0.04900
C1364       C  0.43260670  0.83393977  0.64420695     0.20400
H1365       H  0.42914399  0.85003554  0.58932557     0.10100
C1366       C  0.45750761  0.85344063  0.64979172    -0.15800
C1367       C  0.46167469  0.86088855  0.66608758     0.03100
C1368       C  0.44065189  0.84844332  0.67719565    -0.11200
C1369       C  0.41565198  0.82907994  0.67152151    -0.01200
C1370       C  0.41153501  0.82172311  0.65518983    -0.06300
H1371       H  0.47377113  0.86314623  0.64134358     0.06100
H1372       H  0.39926476  0.81948532  0.67985677     0.09500
Br1373     Br  0.43724630  0.87749653  0.62000929    -0.06000
Br1374     Br  0.41267729  0.76065247  0.60098740    -0.03000
Br1375     Br  0.49598057  0.88959982  0.67201320    -0.00100
Br1376     Br  0.37672155  0.79550709  0.64831004    -0.04500
C1377       C  0.09947820  0.66969797  0.34593214    -0.11900
C1378       C  0.10063862  0.64891298  0.33972734     0.03600
C1379       C  0.09905686  0.64467791  0.32301246    -0.12500
C1380       C  0.09615233  0.66077790  0.31237752     0.18400
C1381       C  0.09443392  0.68115587  0.31853977    -0.09500
C1382       C  0.09607198  0.68547321  0.33523250    -0.02500
H1383       H  0.09982355  0.62860021  0.31827895     0.04900
C1384       C  0.09420373  0.65560430  0.29488788     0.20400
H1385       H  0.09506614  0.70146030  0.33985348     0.10100
C1386       C  0.06948461  0.63889422  0.28800949    -0.15800
C1387       C  0.06682401  0.63377334  0.27139163     0.03100
C1388       C  0.08924247  0.64585207  0.26139509    -0.11200
C1389       C  0.11403889  0.66212546  0.26841877    -0.01200
C1390       C  0.11664008  0.66703235  0.28506590    -0.06300
H1391       H  0.05221465  0.62961824  0.29565427     0.06100
H1392       H  0.13143121  0.67127091  0.26090147     0.09500
Br1393     Br  0.08994873  0.70350231  0.30454803    -0.06000
Br1394     Br  0.10233836  0.62456320  0.35350032    -0.03000
Br1395     Br  0.03242359  0.60849524  0.26339522    -0.00100
Br1396     Br  0.15106362  0.68940184  0.29392752    -0.04500
C1397       C  0.09815936  0.90905938  0.34388475    -0.11900
C1398       C  0.10249939  0.93123649  0.33551331     0.03600
C1399       C  0.10268265  0.93155825  0.31854800    -0.12500
C1400       C  0.09862370  0.91005542  0.30977945     0.18400
C1401       C  0.09407991  0.88786687  0.31810490    -0.09500
C1402       C  0.09370241  0.88742921  0.33503018    -0.02500
H1403       H  0.10585095  0.94856925  0.31215219     0.04900
C1404       C  0.09887352  0.91090261  0.29193160     0.20400
H1405       H  0.09041606  0.87028765  0.34130685     0.10100
C1406       C  0.12206885  0.91880568  0.28362793    -0.15800
C1407       C  0.12283073  0.91945663  0.26667156     0.03100
C1408       C  0.10005559  0.91214961  0.25779887    -0.11200
C1409       C  0.07675648  0.90386688  0.26620579    -0.01200
C1410       C  0.07608245  0.90333016  0.28314499    -0.06300
H1411       H  0.13954444  0.92423493  0.29037295     0.06100
H1412       H  0.05911198  0.89823001  0.25959211     0.09500
Br1413     Br  0.08838779  0.85782671  0.30680530    -0.06000
Br1414     Br  0.10665601  0.96083504  0.34656925    -0.03000
Br1415     Br  0.15496483  0.92875554  0.25636365    -0.00100
Br1416     Br  0.04369768  0.89210058  0.29385252    -0.04500
C1417       C  0.03294463  0.75912021  0.92720168    -0.11900
C1418       C  0.04550034  0.78066626  0.93786461     0.03600
C1419       C  0.03965324  0.77685183  0.95442981    -0.12500
C1420       C  0.02169554  0.75183445  0.96060601     0.18400
C1421       C  0.00958224  0.73030073  0.95008569    -0.09500
C1422       C  0.01529526  0.73404010  0.93353449    -0.02500
H1423       H  0.04930789  0.79343572  0.96257332     0.04900
C1424       C  0.01551596  0.74859367  0.97803914     0.20400
H1425       H  0.50561631  0.71726558  0.92553195     0.10100
C1426       C  0.49450622  0.74972684  0.98351173    -0.15800
C1427       C  0.48797267  0.74667562  0.99995930     0.03100
C1428       C  0.00290192  0.74278830  0.01124185    -0.11200
C1429       C  0.02361172  0.74110094  0.00565231    -0.01200
C1430       C  0.03000840  0.74402120  0.98916738    -0.06300
H1431       H  0.48293909  0.75265678  0.97489943     0.06100
H1432       H  0.03504936  0.73783129  0.01415798     0.09500
Br1433     Br  0.48515567  0.69551932  0.95785664    -0.06000
Br1434     Br  0.07218886  0.81529395  0.93087563    -0.03000
Br1435     Br  0.45721422  0.74579981  0.00602846    -0.00100
Br1436     Br  0.05847737  0.74147542  0.98228279    -0.04500
C1437       C  0.27347255  0.01438345  0.01192053    -0.11900
C1438       C  0.24963144  0.00234145  0.00326933     0.03600
C1439       C  0.24950700  0.99896841  0.98651199    -0.12500
C1440       C  0.27266505  0.00697066  0.97817396     0.18400
C1441       C  0.29636795  0.51859993  0.98673204    -0.09500
C1442       C  0.29662994  0.52220629  0.00346899    -0.02500
H1443       H  0.23113335  0.98963981  0.97994707     0.04900
C1444       C  0.27162634  0.00299123  0.96052388     0.20400
H1445       H  0.31512314  0.53150350  0.00986342     0.10100
C1446       C  0.27030223  0.52046545  0.95022615    -0.15800
C1447       C  0.26900414  0.51713946  0.93341190     0.03100
C1448       C  0.26887494  0.99588054  0.92671594    -0.11200
C1449       C  0.27041591  0.97854269  0.93709565    -0.01200
C1450       C  0.27160520  0.98185553  0.95389273    -0.06300
H1451       H  0.27050529  0.53689065  0.95531034     0.06100
H1452       H  0.27015091  0.96202582  0.93214266     0.09500
Br1453     Br  0.32879155  0.53010016  0.97598195    -0.06000
Br1454     Br  0.21630842  0.98809906  0.01358302    -0.03000
Br1455     Br  0.26918535  0.54314978  0.92026087    -0.00100
Br1456     Br  0.27247212  0.95673165  0.96735563    -0.04500
C1457       C  0.27012004  0.74780470  0.01396835    -0.11900
C1458       C  0.25919316  0.72561126  0.00384213     0.03600
C1459       C  0.25947467  0.72866677  0.98703303    -0.12500
C1460       C  0.27096757  0.75352025  0.98007795     0.18400
C1461       C  0.28260319  0.77568403  0.99006350    -0.09500
C1462       C  0.28202416  0.77270562  0.00686072    -0.02500
H1463       H  0.25089775  0.71158919  0.97930650     0.04900
C1464       C  0.27007658  0.75588625  0.96238561     0.20400
H1465       H  0.29084965  0.78998709  0.01440539     0.10100
C1466       C  0.25220674  0.76099289  0.95577574    -0.15800
C1467       C  0.25028388  0.76269336  0.93901614     0.03100
C1468       C  0.26644515  0.75923995  0.92867516    -0.11200
C1469       C  0.28471941  0.75470533  0.93530128    -0.01200
C1470       C  0.28651095  0.75282739  0.95207182    -0.06300
H1471       H  0.23969603  0.76362043  0.96370803     0.06100
H1472       H  0.29733874  0.75219264  0.92737674     0.09500
Br1473     Br  0.30013098  0.81036628  0.98124095    -0.06000
Br1474     Br  0.24569564  0.69097461  0.01186209    -0.03000
Br1475     Br  0.22627976  0.77101833  0.93088952    -0.00100
Br1476     Br  0.31175149  0.74636142  0.96039563    -0.04500
N1477       N  0.73359954  0.18762068  0.09854572    -0.27200
N1478       N  0.74894770  0.19641778  0.11142066    -0.35100
C1479       C  0.74041013  0.17709611  0.12231491     0.01100
C1480       C  0.71866331  0.15496364  0.11601212     0.07100
C1481       C  0.71471773  0.16225393  0.10093921    -0.06000
H1482       H  0.75025353  0.17868444  0.13357397     0.07800
H1483       H  0.70021836  0.14972479  0.09201384     0.09000
Cu1484     Cu  0.78340751  0.23243526  0.11280226     0.44200
Cu1485     Cu  0.74228363  0.20966804  0.07756964     0.42000
Cu1486     Cu  0.80813660  0.27084020  0.07713240     0.43900
N1487       N  0.82050189  0.26546638  0.11127117    -0.34600
N1488       N  0.82992332  0.27994386  0.09805000    -0.28900
C1489       C  0.85540891  0.29839020  0.10031212    -0.05000
C1490       C  0.86218194  0.29504481  0.11568198     0.07200
C1491       C  0.83962108  0.27409495  0.12230657     0.01000
H1492       H  0.86828194  0.31223917  0.09117697     0.08700
H1493       H  0.83750823  0.26500759  0.13396949     0.07800
N1494       N  0.78405728  0.25454233  0.05721344    -0.36100
N1495       N  0.76030114  0.23293559  0.05731511    -0.28300
C1496       C  0.75126608  0.22734804  0.04203079    -0.03500
C1497       C  0.77044866  0.24600924  0.03181253     0.05100
C1498       C  0.79076292  0.26309408  0.04190822     0.03200
H1499       H  0.73218362  0.21065016  0.03866456     0.08300
H1500       H  0.80956524  0.28008236  0.03833260     0.07100
N1501       N  0.80020131  0.31372566  0.84286277    -0.27200
N1502       N  0.78571340  0.30383501  0.82969935    -0.35100
C1503       C  0.79424237  0.32249730  0.81833594     0.01100
C1504       C  0.81515123  0.34528217  0.82465152     0.07100
C1505       C  0.81859176  0.33910834  0.84018895    -0.06000
H1506       H  0.78490546  0.32000089  0.80673670     0.07800
H1507       H  0.83228117  0.35241219  0.84921407     0.09000
Cu1508     Cu  0.75203100  0.26741355  0.82867860     0.44200
Cu1509     Cu  0.79081058  0.29327898  0.86450129     0.42000
Cu1510     Cu  0.72429616  0.23428207  0.86629865     0.43900
N1511       N  0.71446846  0.23573422  0.83088495    -0.34600
N1512       N  0.70386626  0.22334812  0.84466538    -0.28900
C1513       C  0.67825167  0.20554250  0.84222994    -0.05000
C1514       C  0.67270100  0.20729953  0.82620185     0.07200
C1515       C  0.69604375  0.22651439  0.81936733     0.01000
H1516       H  0.66449862  0.19334074  0.85160527     0.08700
H1517       H  0.69922505  0.23411694  0.80713688     0.07800
N1518       N  0.74885791  0.25106630  0.88606968    -0.36100
N1519       N  0.77318129  0.27176955  0.88534628    -0.28300
C1520       C  0.78331656  0.27757198  0.90037298    -0.03500
C1521       C  0.76433097  0.25995904  0.91100318     0.05100
C1522       C  0.74278490  0.24338434  0.90159064     0.03200
H1523       H  0.80277790  0.29397422  0.90339456     0.08300
H1524       H  0.72401595  0.22706748  0.90571860     0.07100
O1525       O  0.72360351  0.24024591  0.46995950    -0.72900
O1526       O  0.79310827  0.26653906  0.49047564    -0.73900
O1527       O  0.77245612  0.28852214  0.47028157    -0.62500
O1528       O  0.74409473  0.21825740  0.49031856    -0.70900
O1529       O  0.75624998  0.20614959  0.46857433    -0.70500
O1530       O  0.78445903  0.27655538  0.44840187    -0.61700
O1531       O  0.80506677  0.25449168  0.46860128    -0.74200
O1532       O  0.73567364  0.22799217  0.44823306    -0.73000
Cu1533     Cu  0.75788127  0.25381081  0.48102298     1.04600
Cu1534     Cu  0.77078849  0.24086986  0.45768744     1.04300
C1535       C  0.71880816  0.23017184  0.45582280     0.93300
C1536       C  0.80995977  0.26445086  0.48275869     0.92400
C1537       C  0.78272999  0.29357062  0.45617948     0.84600
C1538       C  0.74590334  0.20122070  0.48266685     0.90900
O1539       O  0.59571245  0.38053962  0.80198274    -0.72900
O1540       O  0.62524891  0.45134412  0.78227600    -0.73900
O1541       O  0.64465519  0.42852043  0.80285368    -0.62500
O1542       O  0.57615770  0.40328400  0.78126471    -0.70900
O1543       O  0.56338868  0.41504890  0.80287175    -0.70500
O1544       O  0.63228787  0.44065567  0.82448130    -0.61700
O1545       O  0.61248584  0.46312483  0.80388352    -0.74200
O1546       O  0.58309605  0.39238912  0.82362473    -0.73000
Cu1547     Cu  0.61086884  0.41549317  0.79134875     1.04600
Cu1548     Cu  0.59733148  0.42819870  0.81448015     1.04300
C1549       C  0.58516718  0.37547145  0.81601206     0.93300
C1550       C  0.62329419  0.46829363  0.78993661     0.92400
C1551       C  0.64923961  0.43837853  0.81703930     0.84600
C1552       C  0.55912298  0.40555010  0.78857541     0.90900
N1553       N  0.74837703  0.05431368  0.09431914    -0.27200
N1554       N  0.76110021  0.05821814  0.10807542    -0.35100
C1555       C  0.75129850  0.06622000  0.11942297     0.01100
C1556       C  0.73126035  0.06713305  0.11250419     0.07100
C1557       C  0.72984170  0.05942465  0.09659103    -0.06000
H1558       H  0.75782311  0.07036169  0.13188956     0.07800
H1559       H  0.71621769  0.05742637  0.08739421     0.09000
Cu1560     Cu  0.79050115  0.05165618  0.11101116     0.44200
Cu1561     Cu  0.75698297  0.04208697  0.07331297     0.42000
Cu1562     Cu  0.80750249  0.02797823  0.07639719     0.43900
N1563       N  0.82147134  0.04711702  0.11071914    -0.34600
N1564       N  0.82789563  0.03860600  0.09805094    -0.28900
C1565       C  0.85085221  0.04126579  0.10103639    -0.05000
C1566       C  0.85917700  0.05200987  0.11628885     0.07200
C1567       C  0.84004178  0.05531451  0.12212578     0.01000
H1568       H  0.86143759  0.03721221  0.09236126     0.08700
H1569       H  0.84041518  0.06460325  0.13335398     0.07800
N1570       N  0.78749130  0.52434113  0.05526971    -0.36100
N1571       N  0.76961217  0.53005356  0.05410413    -0.28300
C1572       C  0.76169219  0.52723988  0.03862260    -0.03500
C1573       C  0.77487117  0.51891143  0.02961096     0.05100
C1574       C  0.79129133  0.51759135  0.04056019     0.03200
H1575       H  0.74798035  0.53180025  0.03423555     0.08300
H1576       H  0.80523588  0.51239858  0.03799682     0.07100
N1577       N  0.78846974  0.44886069  0.84555030    -0.27200
N1578       N  0.77373879  0.44211812  0.83242866    -0.35100
C1579       C  0.78283840  0.43317375  0.82121873     0.01100
C1580       C  0.80442236  0.43447562  0.82757616     0.07100
C1581       C  0.80752217  0.44455196  0.84300759    -0.06000
H1582       H  0.77462140  0.42666837  0.80923832     0.07800
H1583       H  0.82258836  0.44864067  0.85169294     0.09000
Cu1584     Cu  0.74244806  0.44603129  0.83015802     0.44200
Cu1585     Cu  0.78175685  0.46371643  0.86609120     0.42000
Cu1586     Cu  0.72845720  0.47413962  0.86369081     0.43900
N1587       N  0.71126365  0.45031228  0.83060593    -0.34600
N1588       N  0.70582929  0.46038194  0.84289092    -0.28900
C1589       C  0.68316894  0.45837953  0.83984023    -0.05000
C1590       C  0.67411103  0.44657729  0.82489188     0.07200
C1591       C  0.69241136  0.44181688  0.81937289     0.01000
H1592       H  0.67363688  0.46430955  0.84809687     0.08700
H1593       H  0.69157766  0.43194306  0.80830532     0.07800
N1594       N  0.75167463  0.48214120  0.88398042    -0.36100
N1595       N  0.77058638  0.47782646  0.88494482    -0.28300
C1596       C  0.78012328  0.48287460  0.90011963    -0.03500
C1597       C  0.76682026  0.49105959  0.90909293     0.05100
C1598       C  0.74880588  0.49019184  0.89850026     0.03200
H1599       H  0.79520903  0.48016635  0.90441062     0.08300
H1600       H  0.73378746  0.49378439  0.90133011     0.07100
N1601       N  0.96602229  0.26938262  0.09428325    -0.27200
N1602       N  0.95912314  0.25467973  0.10745606    -0.35100
C1603       C  0.95076072  0.26419837  0.11875217     0.01100
C1604       C  0.95252491  0.28598916  0.11241592     0.07100
C1605       C  0.96235613  0.28884770  0.09689939    -0.06000
H1606       H  0.94391344  0.25583740  0.13069392     0.07800
H1607       H  0.96629770  0.30375117  0.08812661     0.09000
Cu1608     Cu  0.96065379  0.22201403  0.10960831     0.44200
Cu1609     Cu  0.47883302  0.26124473  0.07325783     0.42000
Cu1610     Cu  0.48096692  0.20284986  0.07453261     0.43900
N1611       N  0.96153509  0.18887570  0.10885331    -0.34600
N1612       N  0.96892643  0.18170291  0.09598361    -0.28900
C1613       C  0.96580168  0.15856773  0.09905310    -0.05000
C1614       C  0.95598940  0.15093749  0.11459536     0.07200
C1615       C  0.95354065  0.17058785  0.12046931     0.01000
H1616       H  0.96962743  0.14775525  0.09043373     0.08700
H1617       H  0.94575362  0.17118683  0.13210117     0.07800
N1618       N  0.48922904  0.22583463  0.05406376    -0.36100
N1619       N  0.48815050  0.24682343  0.05355390    -0.28300
C1620       C  0.49302796  0.25621290  0.03831891    -0.03500
C1621       C  0.49722020  0.24029449  0.02877834     0.05100
C1622       C  0.49498541  0.22143335  0.03919064     0.03200
H1623       H  0.49338430  0.27331718  0.03447868     0.08300
H1624       H  0.49667362  0.20525555  0.03609118     0.07100
N1625       N  0.56768115  0.23237241  0.84411111    -0.27200
N1626       N  0.57594169  0.24773396  0.83120369    -0.35100
C1627       C  0.58494089  0.23837913  0.82021098     0.01100
C1628       C  0.58214273  0.21603761  0.82650284     0.07100
C1629       C  0.57108716  0.21271456  0.84165633    -0.06000
H1630       H  0.59291668  0.24720749  0.80850552     0.07800
H1631       H  0.56617790  0.19737791  0.85032913     0.09000
Cu1632     Cu  0.57479200  0.28075326  0.82906837     0.44200
Cu1633     Cu  0.55369533  0.23991584  0.86470686     0.42000
Cu1634     Cu  0.55107192  0.29794308  0.86351237     0.43900
N1635       N  0.57186753  0.31283203  0.82950867    -0.34600
N1636       N  0.56306803  0.31913676  0.84208803    -0.28900
C1637       C  0.56540752  0.34190733  0.83896280    -0.05000
C1638       C  0.57617429  0.35024168  0.82367921     0.07200
C1639       C  0.57996362  0.33133632  0.81801870     0.01000
H1640       H  0.56073368  0.35218372  0.84747052     0.08700
H1641       H  0.58904889  0.33159613  0.80671935     0.07800
N1642       N  0.54433065  0.27570692  0.88414326    -0.36100
N1643       N  0.54518404  0.25459587  0.88452237    -0.28300
C1644       C  0.54120111  0.24556055  0.89980828    -0.03500
C1645       C  0.53801840  0.26193516  0.90957662     0.05100
C1646       C  0.53980421  0.28066689  0.89920259     0.03200
H1647       H  0.54123741  0.22864145  0.90359715     0.08300
H1648       H  0.53790083  0.29669743  0.90230604     0.07100
O1649       O  0.88979297  0.07238262  0.13764527    -0.72900
O1650       O  0.96047043  0.10171812  0.15732792    -0.73900
O1651       O  0.93784531  0.12157915  0.13684933    -0.62500
O1652       O  0.91244066  0.05256739  0.15799170    -0.70900
O1653       O  0.92430513  0.04031789  0.13616950    -0.70500
O1654       O  0.94992684  0.10924809  0.11517606    -0.61700
O1655       O  0.97233664  0.08918499  0.13564782    -0.74200
O1656       O  0.90178570  0.06013295  0.11588710    -0.73000
Cu1657     Cu  0.92471269  0.08751955  0.14821615     1.04600
Cu1658     Cu  0.93752799  0.07432479  0.12495911     1.04300
C1659       C  0.88470607  0.06176784  0.12366519     0.93300
C1660       C  0.97736816  0.09962163  0.14968408     0.92400
C1661       C  0.94767672  0.12616488  0.12262211     0.84600
C1662       C  0.91458428  0.03567182  0.15041011     0.90900
N1663       N  0.65788551  0.44123527  0.42866540    -0.27200
N1664       N  0.64762144  0.42770321  0.44216167    -0.35100
C1665       C  0.66626838  0.43630947  0.45352536     0.01100
C1666       C  0.68940502  0.95631088  0.44688374     0.07100
C1667       C  0.68346997  0.95911398  0.43114032    -0.06000
H1668       H  0.66335916  0.42792016  0.46550119     0.07800
H1669       H  0.69694499  0.97231699  0.42195661     0.09000
Cu1670     Cu  0.61017685  0.39552424  0.44396602     0.44200
Cu1671     Cu  0.63708661  0.43205490  0.40716894     0.42000
Cu1672     Cu  0.57527285  0.36816401  0.40676505     0.43900
N1673       N  0.57762566  0.35835376  0.44216652    -0.34600
N1674       N  0.56482052  0.34787302  0.42850887    -0.28900
C1675       C  0.54689833  0.32231871  0.43103180    -0.05000
C1676       C  0.54893512  0.31663917  0.44698555     0.07200
C1677       C  0.56849815  0.33988259  0.45369654     0.03700
H1678       H  0.03451747  0.30863947  0.42171625     0.08700
H1679       H  0.57657304  0.34288148  0.46576372     0.07800
N1680       N  0.59115897  0.39256421  0.38677279    -0.36100
N1681       N  0.61325781  0.41592497  0.38697729    -0.28300
C1682       C  0.61846936  0.42594651  0.37189620    -0.03500
C1683       C  0.59871437  0.40805844  0.36172941     0.05100
C1684       C  0.58187481  0.38706183  0.37154611     0.03200
H1685       H  0.63611285  0.44423543  0.36843777     0.08300
H1686       H  0.56452116  0.36871138  0.36779085     0.07100
N1687       N  0.54040358  0.38264204  0.17348714    -0.27200
N1688       N  0.54986813  0.39706390  0.16022971    -0.35100
C1689       C  0.53042361  0.38966501  0.14960304     0.01100
C1690       C  0.00760156  0.36959412  0.15650278     0.07100
C1691       C  0.01453897  0.36542584  0.17159784    -0.06000
H1692       H  0.53258810  0.39905201  0.13804667     0.07800
H1693       H  0.00159333  0.35184330  0.18082502     0.09000
Cu1694     Cu  0.58717447  0.42932938  0.15813604     0.44200
Cu1695     Cu  0.56233395  0.39020430  0.19430014     0.42000
Cu1696     Cu  0.62379756  0.45423359  0.19504055     0.43900
N1697       N  0.61903794  0.46678580  0.16047922    -0.34600
N1698       N  0.63248198  0.47642558  0.17404372    -0.28900
C1699       C  0.64969757  0.00230774  0.17210024    -0.05000
C1700       C  0.64655354  0.00904921  0.15663718     0.07200
C1701       C  0.62704635  0.48608032  0.14961238     0.01000
H1702       H  0.66256397  0.01540961  0.18149928     0.08700
H1703       H  0.61839016  0.48372159  0.13778677     0.07800
N1704       N  0.60834400  0.42903961  0.21483091    -0.36100
N1705       N  0.58604546  0.40585528  0.21452356    -0.28300
C1706       C  0.58032739  0.39584161  0.22959948    -0.03500
C1707       C  0.60005376  0.41339766  0.23990367     0.05100
C1708       C  0.61741552  0.43427373  0.23012641     0.03200
H1709       H  0.56249383  0.37758813  0.23294024     0.08300
H1710       H  0.63452930  0.45268571  0.23400555     0.07100
N1711       N  0.57797700  0.21544171  0.42680116    -0.27200
N1712       N  0.59315637  0.22331658  0.43975554    -0.35100
C1713       C  0.58375548  0.23204179  0.45086580     0.01100
C1714       C  0.56151072  0.22938520  0.44461678     0.07100
C1715       C  0.55831596  0.21880225  0.42935442    -0.06000
H1716       H  0.59222001  0.23926652  0.46272697     0.07800
H1717       H  0.54278234  0.21370214  0.42080540     0.09000
Cu1718     Cu  0.62526294  0.22107983  0.44223495     0.44200
Cu1719     Cu  0.58481534  0.20055622  0.40642356     0.42000
Cu1720     Cu  0.64132022  0.19559305  0.40847443     0.43900
N1721       N  0.65677943  0.21761568  0.44205650    -0.34600
N1722       N  0.66294199  0.20845475  0.42962405    -0.28900
C1723       C  0.68560043  0.21063536  0.43283820    -0.05000
C1724       C  0.69390611  0.22165221  0.44802901     0.07200
C1725       C  0.67517822  0.22575525  0.45355859     0.01000
H1726       H  0.69572328  0.20550394  0.42449638     0.08700
H1727       H  0.67545521  0.23503012  0.46477048     0.07800
N1728       N  0.61776472  0.18610084  0.38826371    -0.36100
N1729       N  0.59738174  0.18816789  0.38746504    -0.28300
C1730       C  0.58739753  0.18206548  0.37241578    -0.03500
C1731       C  0.60200389  0.17552316  0.36338733     0.05100
C1732       C  0.62121131  0.17848702  0.37376567     0.03200
H1733       H  0.57101675  0.18277927  0.36828629     0.08300
H1734       H  0.63716238  0.17631939  0.37084123     0.07100
N1735       N  0.61515057  0.10813196  0.17887990    -0.27200
N1736       N  0.60102102  0.10229093  0.16554404    -0.35100
C1737       C  0.61093338  0.09460653  0.15406515     0.01100
C1738       C  0.63245149  0.09586417  0.16046984     0.07100
C1739       C  0.63462231  0.10450047  0.17621827    -0.06000
H1740       H  0.60340592  0.08915826  0.14184850     0.07800
H1741       H  0.64939171  0.10816328  0.18502225     0.09000
Cu1742     Cu  0.56985039  0.10631481  0.16321616     0.44200
Cu1743     Cu  0.60731473  0.12115545  0.19981296     0.42000
Cu1744     Cu  0.55433026  0.13206952  0.19721229     0.43900
N1745       N  0.53923015  0.11141586  0.16331955    -0.34600
N1746       N  0.53339131  0.12086422  0.17575721    -0.28900
C1747       C  0.51100615  0.11928931  0.17253369    -0.05000
C1748       C  0.50250922  0.10837477  0.15732343     0.07200
C1749       C  0.52088258  0.10371009  0.15181581     0.01000
H1750       H  0.50099114  0.12441410  0.18096702     0.08700
H1751       H  0.52021180  0.09406576  0.14068144     0.07800
N1752       N  0.57510143  0.13656478  0.21813216    -0.36100
N1753       N  0.59424196  0.13257999  0.21907765    -0.28300
C1754       C  0.60242184  0.13570842  0.23452174    -0.03500
C1755       C  0.58744272  0.14152308  0.24375997     0.05100
C1756       C  0.57052179  0.14221194  0.23296626     0.03200
H1757       H  0.61759818  0.13312611  0.23879038     0.08300
H1758       H  0.55578294  0.14624034  0.23567906     0.07100
O1759       O  0.65114786  0.03828557  0.13598552    -0.72900
O1760       O  0.68570746  0.10951006  0.11586440    -0.73900
O1761       O  0.69280936  0.06758953  0.11392948    -0.62500
O1762       O  0.64391494  0.08031695  0.13788617    -0.70900
O1763       O  0.67151037  0.09660072  0.15866435    -0.70500
O1764       O  0.72003840  0.08320013  0.13490599    -0.61700
O1765       O  0.71332874  0.12550703  0.13663421    -0.74200
O1766       O  0.67838938  0.05463792  0.15693260    -0.73000
Cu1767     Cu  0.66737792  0.07332418  0.12519654     1.04600
Cu1768     Cu  0.69681023  0.09061250  0.14748997     1.04300
C1769       C  0.65932714  0.03522055  0.14952996     0.93300
C1770       C  0.70513597  0.12876250  0.12316711     0.92400
C1771       C  0.71397633  0.07308538  0.12077272     0.84600
C1772       C  0.65006957  0.09058616  0.15197648     0.90900
O1773       O  0.55088369  0.24615301  0.46682013    -0.72900
O1774       O  0.50312416  0.26008271  0.49079518    -0.73900
O1775       O  0.50974523  0.21801288  0.48924851    -0.62500
O1776       O  0.54415045  0.28836086  0.46826820    -0.70900
O1777       O  0.51642640  0.27133539  0.44757144    -0.70500
O1778       O  0.98163752  0.20131889  0.46872852    -0.61700
O1779       O  0.97529387  0.24382908  0.47012440    -0.74200
O1780       O  0.52274457  0.22909914  0.44632812    -0.73000
Cu1781     Cu  0.52801389  0.25378389  0.47948710     1.04600
Cu1782     Cu  0.99799887  0.23577111  0.45748517     1.04300
C1783       C  0.54427993  0.23525545  0.45292491     0.93300
C1784       C  0.98174981  0.25431956  0.48415173     0.92400
C1785       C  0.99012850  0.19856270  0.48221641     0.84600
C1786       C  0.53579981  0.29091937  0.45465251     0.90900
N1787       N  0.94722532  0.27212029  0.51120535    -0.27200
N1788       N  0.93386388  0.26760633  0.49764354    -0.35100
C1789       C  0.94380010  0.26011893  0.48606659     0.01100
C1790       C  0.96456833  0.26016338  0.49262103     0.07100
C1791       C  0.96630843  0.26790932  0.50855341    -0.06000
H1792       H  0.93671849  0.25548940  0.47372881     0.07800
H1793       H  0.48037344  0.27033183  0.51754027     0.09000
Cu1794     Cu  0.90329062  0.27242096  0.49511667     0.44200
Cu1795     Cu  0.93865524  0.28353974  0.53263150     0.42000
Cu1796     Cu  0.88657721  0.29515089  0.53015216     0.43900
N1797       N  0.87220919  0.27668852  0.49579168    -0.34600
N1798       N  0.86589023  0.28489883  0.50865638    -0.28900
C1799       C  0.84321267  0.28286618  0.50576819    -0.05000
C1800       C  0.83500479  0.27290582  0.49035036     0.07200
C1801       C  0.85385871  0.26931542  0.48433616     0.01000
H1802       H  0.83285213  0.28707522  0.51453889     0.08700
H1803       H  0.85356594  0.26065889  0.47286362     0.07800
N1804       N  0.90719281  0.29961360  0.55110679    -0.36100
N1805       N  0.92561352  0.29461731  0.55218837    -0.28300
C1806       C  0.93398375  0.29809028  0.56762509    -0.03500
C1807       C  0.92015218  0.30564628  0.57662191     0.05100
C1808       C  0.90354487  0.30666163  0.56575321     0.03200
H1809       H  0.94921121  0.29561362  0.57192319     0.08300
H1810       H  0.88952629  0.31174726  0.56835076     0.07100
N1811       N  0.91660859  0.38921636  0.75995299    -0.27200
N1812       N  0.93188133  0.39662421  0.77286182    -0.35100
C1813       C  0.92220747  0.40433022  0.78448084     0.01100
C1814       C  0.89967242  0.40156781  0.77867105     0.07100
C1815       C  0.89661164  0.39192516  0.76308400    -0.06000
H1816       H  0.93087184  0.41123078  0.79633229     0.07800
H1817       H  0.88107806  0.38727241  0.75465612     0.09000
Cu1818     Cu  0.96497465  0.39574771  0.77452385     0.44200
Cu1819     Cu  0.92430174  0.37620772  0.73876136     0.42000
Cu1820     Cu  0.98380809  0.37528617  0.73971241     0.43900
N1821       N  0.99756060  0.39387875  0.77409302    -0.34600
N1822       N  0.00476498  0.38645119  0.76126382    -0.28900
C1823       C  0.52743326  0.38864125  0.76459389    -0.05000
C1824       C  0.53468550  0.39786776  0.78027843     0.07200
C1825       C  0.01530110  0.40094238  0.78593595     0.01000
H1826       H  0.53821379  0.38460529  0.75607467     0.08700
H1827       H  0.01456114  0.40857771  0.79758449     0.07800
N1828       N  0.95988367  0.36587681  0.71955134    -0.36100
N1829       N  0.93830394  0.36597220  0.71917692    -0.28300
C1830       C  0.92804373  0.35946447  0.70416676    -0.03500
C1831       C  0.94411806  0.35547212  0.69458675     0.05100
C1832       C  0.96391643  0.35939888  0.70481183     0.03200
H1833       H  0.91050536  0.35834726  0.70039329     0.08300
H1834       H  0.98008978  0.35763794  0.70180828     0.07100
O1835       O  0.85565322  0.44458408  0.78287831    -0.72900
O1836       O  0.81999278  0.37402818  0.80365299    -0.73900
O1837       O  0.81441898  0.41710256  0.80530183    -0.62500
O1838       O  0.86108026  0.40168319  0.78101155    -0.70900
O1839       O  0.88931781  0.41785394  0.80146117    -0.70500
O1840       O  0.84250817  0.43327022  0.82583144    -0.61700
O1841       O  0.84818465  0.39044380  0.82413523    -0.74200
O1842       O  0.88373698  0.46082378  0.80342585    -0.73000
Cu1843     Cu  0.83675029  0.40872925  0.79251499     1.04600
Cu1844     Cu  0.86695659  0.42617345  0.81442227     1.04300
C1845       C  0.87532876  0.46385078  0.78999477     0.93300
C1846       C  0.82847188  0.37111631  0.81711195     0.92400
C1847       C  0.82118534  0.42785653  0.81924020     0.84600
C1848       C  0.88256885  0.40733864  0.78743535     0.90900
N1849       N  0.86377433  0.05043596  0.50959952    -0.27200
N1850       N  0.87378381  0.06400157  0.49608911    -0.35100
C1851       C  0.85498895  0.05518294  0.48482286     0.01100
C1852       C  0.83203646  0.03501711  0.49155680     0.07100
C1853       C  0.83820738  0.03234223  0.50725360    -0.06000
H1854       H  0.85769174  0.06344419  0.47282403     0.07800
H1855       H  0.82493199  0.51905668  0.51647972     0.09000
Cu1856     Cu  0.91133678  0.09595692  0.49397204     0.44200
Cu1857     Cu  0.88484379  0.05985240  0.53091506     0.42000
Cu1858     Cu  0.94893005  0.12195484  0.53026871     0.43900
N1859       N  0.94593638  0.13174651  0.49504140    -0.34600
N1860       N  0.95990357  0.14169839  0.50839027    -0.28900
C1861       C  0.47904090  0.16680179  0.50561367    -0.05000
C1862       C  0.47662658  0.17277330  0.48980845     0.07200
C1863       C  0.95558487  0.15011804  0.48344090     0.01000
H1864       H  0.49235492  0.18017527  0.51475452     0.08700
H1865       H  0.94673208  0.14766918  0.47166683     0.07800
N1866       N  0.93144369  0.09952840  0.55078920    -0.36100
N1867       N  0.90849103  0.07698348  0.55098872    -0.28300
C1868       C  0.90262990  0.06812971  0.56631191    -0.03500
C1869       C  0.92265472  0.08618558  0.57627291     0.05100
C1870       C  0.94072465  0.10565025  0.56598874     0.03200
H1871       H  0.88513558  0.04988091  0.56983803     0.08300
H1872       H  0.95908015  0.12329372  0.56934264     0.07100
N1873       N  0.90421770  0.02141104  0.76450916    -0.27200
N1874       N  0.91857646  0.03118443  0.77772607    -0.35100
C1875       C  0.90971857  0.01243979  0.78905918     0.01100
C1876       C  0.88877907  0.48976679  0.78261554     0.07100
C1877       C  0.88563238  0.49608455  0.76707859    -0.06000
H1878       H  0.91885058  0.01477495  0.80071025     0.07800
H1879       H  0.87203267  0.48289359  0.75796447     0.09000
Cu1880     Cu  0.95228659  0.06769588  0.77880695     0.44200
Cu1881     Cu  0.91387390  0.04181444  0.74297406     0.42000
Cu1882     Cu  0.97853043  0.10308728  0.74149072     0.43900
N1883       N  0.98910230  0.10078929  0.77667318    -0.34600
N1884       N  0.49911867  0.11397969  0.76304073    -0.28900
C1885       C  0.52445294  0.13278447  0.76550096    -0.05000
C1886       C  0.53044984  0.13093757  0.78140073     0.07200
C1887       C  0.50764590  0.11056136  0.78812619     0.01000
H1888       H  0.53778599  0.14577660  0.75619947     0.08700
H1889       H  0.50499624  0.10256470  0.80020832     0.07800
N1890       N  0.95422537  0.08575369  0.72169636    -0.36100
N1891       N  0.93079052  0.06379148  0.72230638    -0.28300
C1892       C  0.92076128  0.05749321  0.70728879    -0.03500
C1893       C  0.93891438  0.07617768  0.69667678     0.05100
C1894       C  0.95972457  0.09397476  0.70624572     0.03200
H1895       H  0.90167577  0.04053406  0.70439130     0.08300
H1896       H  0.97785976  0.11134678  0.70222022     0.07100
O1897       O  0.89150011  0.30079424  0.13645957    -0.72900
O1898       O  0.96221648  0.33722254  0.15683621    -0.73900
O1899       O  0.91901743  0.34234861  0.15860900    -0.62500
O1900       O  0.93499965  0.29589001  0.13467006    -0.70900
O1901       O  0.95087505  0.32375925  0.11397170    -0.70500
O1902       O  0.93453287  0.37005921  0.13782481    -0.61700
O1903       O  0.97816030  0.36514878  0.13615637    -0.74200
O1904       O  0.90736350  0.32847997  0.11566039    -0.73000
Cu1905     Cu  0.92633594  0.31806681  0.14735582     1.04600
Cu1906     Cu  0.94331533  0.34790200  0.12519556     1.04300
C1907       C  0.88823585  0.30882732  0.12293636     0.93300
C1908       C  0.98141480  0.35674829  0.14954255     0.92400
C1909       C  0.92405604  0.36343500  0.15187516     0.84600
C1910       C  0.94572894  0.30262518  0.12068881     0.90900
N1911       N  0.79750463  0.43501456  0.42900171    -0.27200
N1912       N  0.79219995  0.42127988  0.44250547    -0.35100
C1913       C  0.78301744  0.43026694  0.45364592     0.01100
C1914       C  0.78264909  0.45070015  0.44684062     0.07100
C1915       C  0.79206406  0.45330396  0.43124652    -0.06000
H1916       H  0.77702417  0.42245552  0.46577683     0.07800
H1917       H  0.79442826  0.46718288  0.42212881     0.09000
Cu1918     Cu  0.79661888  0.39031401  0.44512093     0.44200
Cu1919     Cu  0.81055304  0.42740586  0.40789122     0.42000
Cu1920     Cu  0.81825219  0.37282707  0.40968088     0.43900
N1921       N  0.79841171  0.35761226  0.44388806    -0.34600
N1922       N  0.80610145  0.35101731  0.43088186    -0.28900
C1923       C  0.80255346  0.32755952  0.43343038    -0.05000
C1924       C  0.79213162  0.31906932  0.44876879     0.07200
C1925       C  0.78984043  0.33860951  0.45507677     0.01000
H1926       H  0.80625584  0.31701492  0.42452525     0.08700
H1927       H  0.78144283  0.33849825  0.46663053     0.07800
N1928       N  0.82538184  0.39525387  0.38908021    -0.36100
N1929       N  0.82198749  0.41478083  0.38829189    -0.28300
C1930       C  0.82662129  0.42409099  0.37302780    -0.03500
C1931       C  0.83316988  0.40966000  0.36378283     0.05100
C1932       C  0.83247870  0.39176727  0.37438899     0.03200
H1933       H  0.82534529  0.44017838  0.36899053     0.08300
H1934       H  0.83617064  0.37681839  0.37153127     0.07100
N1935       N  0.90525137  0.39721124  0.17888116    -0.27200
N1936       N  0.90970736  0.41062221  0.16532493    -0.35100
C1937       C  0.91728507  0.40079880  0.15372025     0.01100
C1938       C  0.91744211  0.38011466  0.16026394     0.07100
C1939       C  0.90963727  0.37826826  0.17620615    -0.06000
H1940       H  0.92214899  0.40809542  0.14142383     0.07800
H1941       H  0.90756043  0.36438627  0.18524214     0.09000
Cu1942     Cu  0.90559700  0.44173836  0.16298568     0.44200
Cu1943     Cu  0.89454260  0.40602380  0.20050619     0.42000
Cu1944     Cu  0.88772785  0.46133457  0.19877710     0.43900
N1945       N  0.90255712  0.47362928  0.16379687    -0.34600
N1946       N  0.89596615  0.48089207  0.17698617    -0.28900
C1947       C  0.89808991  0.50358359  0.17405451    -0.05000
C1948       C  0.90649547  0.51088786  0.15826036     0.07200
C1949       C  0.90905166  0.49145789  0.15208115     0.01000
H1950       H  0.89506645  0.51456952  0.18300204     0.08700
H1951       H  0.91636871  0.49096756  0.14024355     0.07800
N1952       N  0.88365449  0.44086462  0.21967010    -0.36100
N1953       N  0.88612476  0.42075046  0.22043172    -0.28300
C1954       C  0.88277026  0.41244389  0.23589070    -0.03500
C1955       C  0.87833777  0.42835185  0.24528669     0.05100
C1956       C  0.87871466  0.44592417  0.23455438     0.03200
H1957       H  0.88372977  0.39619783  0.24000715     0.08300
H1958       H  0.87527960  0.46106564  0.23726373     0.07100
O1959       O  0.78715558  0.00084708  0.49077419    -0.72900
O1960       O  0.71779381  0.46221663  0.46839007    -0.73900
O1961       O  0.76278260  0.45933174  0.46838001    -0.62500
O1962       O  0.74254312  0.50365495  0.49084306    -0.70900
O1963       O  0.75893533  0.03172528  0.47025912    -0.70500
O1964       O  0.77890084  0.98724288  0.44771127    -0.61700
O1965       O  0.73432122  0.99026330  0.44779320    -0.74200
O1966       O  0.80360889  0.02870156  0.47007063    -0.73000
Cu1967     Cu  0.75193865  0.48046588  0.48029609     1.04600
Cu1968     Cu  0.76952739  0.01049165  0.45824938     1.04300
C1969       C  0.80637557  0.02083389  0.48380617     0.93300
C1970       C  0.71505828  0.47025283  0.45469689     0.92400
C1971       C  0.77429786  0.46644071  0.45463964     0.84600
C1972       C  0.74754158  0.02467511  0.48403872     0.90900
N1973       N  0.72599001  0.05710254  0.51010972    -0.27200
N1974       N  0.73314786  0.07201428  0.49701662    -0.35100
C1975       C  0.74187491  0.06274854  0.48578422     0.01100
C1976       C  0.74003578  0.04090070  0.49208322     0.07100
C1977       C  0.72985233  0.03778232  0.50750719    -0.06000
H1978       H  0.74909669  0.07136665  0.47393675     0.07800
H1979       H  0.72589190  0.02284294  0.51626378     0.09000
Cu1980     Cu  0.73149293  0.10460715  0.49486432     0.44200
Cu1981     Cu  0.71267238  0.06461396  0.53112357     0.42000
Cu1982     Cu  0.71079468  0.12304716  0.52990076     0.43900
N1983       N  0.73036742  0.13759550  0.49569216    -0.34600
N1984       N  0.72280996  0.14453740  0.50858709    -0.28900
C1985       C  0.72628592  0.16788790  0.50573732    -0.05000
C1986       C  0.73654748  0.17591335  0.49031069     0.07200
C1987       C  0.73881211  0.15623344  0.48427364     0.01000
H1988       H  0.72264673  0.17867052  0.51447786     0.08700
H1989       H  0.74703792  0.15596614  0.47272354     0.07800
N1990       N  0.70299897  0.10027335  0.55040620    -0.36100
N1991       N  0.70353345  0.07897726  0.55090599    -0.28300
C1992       C  0.69904161  0.06987218  0.56622041    -0.03500
C1993       C  0.69594623  0.08647942  0.57582715     0.05100
C1994       C  0.69824163  0.10531702  0.56536207     0.03200
H1995       H  0.69898667  0.05298176  0.57017000     0.08300
H1996       H  0.69689481  0.12172487  0.56839783     0.07100
N1997       N  0.63464433  0.10766532  0.76165781    -0.27200
N1998       N  0.62997223  0.09399780  0.77512289    -0.35100
C1999       C  0.62170734  0.10323147  0.78669058     0.01100
C2000       C  0.62135144  0.12384048  0.78024415     0.07100
C2001       C  0.62973780  0.12623889  0.76437636    -0.06000
H2002       H  0.61651268  0.09557675  0.79890667     0.07800
H2003       H  0.63180616  0.14020259  0.75542428     0.09000
Cu2004     Cu  0.63469917  0.06331072  0.77742176     0.44200
Cu2005     Cu  0.64612395  0.09937829  0.74009132     0.42000
Cu2006     Cu  0.65604019  0.04565096  0.74264688     0.43900
N2007       N  0.63795869  0.03157207  0.77700988    -0.34600
N2008       N  0.64586971  0.02492687  0.76415654    -0.28900
C2009       C  0.64305799  0.00188514  0.76704252    -0.05000
C2010       C  0.63284405  0.99373836  0.78246093     0.07200
C2011       C  0.62995715  0.01305236  0.78845804     0.01000
H2012       H  0.64671010  0.99117789  0.75823973     0.08700
H2013       H  0.62123774  0.01292942  0.79989577     0.07800
N2014       N  0.65914325  0.06544051  0.72154733    -0.36100
N2015       N  0.65488099  0.08437141  0.72041609    -0.28300
C2016       C  0.65668420  0.09137252  0.70474767    -0.03500
C2017       C  0.66232862  0.07607856  0.69567960     0.05100
C2018       C  0.66400564  0.06009065  0.70671975     0.03200
H2019       H  0.65422911  0.10654219  0.70032241     0.08300
H2020       H  0.66791716  0.04521720  0.70412427     0.07100
O2021       O  0.55871304  0.13696256  0.80283334    -0.72900
O2022       O  0.62765499  0.17398701  0.82524979    -0.73900
O2023       O  0.58384130  0.17820148  0.82535065    -0.62500
O2024       O  0.60286144  0.13298174  0.80244313    -0.70900
O2025       O  0.61909333  0.16111046  0.78188377    -0.70500
O2026       O  0.60095090  0.20645446  0.80488610    -0.61700
O2027       O  0.64475441  0.20193152  0.80461238    -0.74200
O2028       O  0.57535013  0.16519182  0.78232226    -0.73000
Cu2029     Cu  0.59263415  0.15449271  0.81467858     1.04600
Cu2030     Cu  0.61066753  0.18471613  0.79273998     1.04300
C2031       C  0.55605226  0.14513660  0.78919242     0.93300
C2032       C  0.64716450  0.19373198  0.81833609     0.92400
C2033       C  0.58935505  0.19945702  0.81859074     0.84600
C2034       C  0.61402124  0.14000971  0.78857576     0.90900
C2035       C  0.69168342  0.08470855  0.59351904    -0.11900
C2036       C  0.70611040  0.10670724  0.60367069     0.03600
C2037       C  0.70094095  0.10431474  0.62029549    -0.12500
C2038       C  0.68175350  0.08024739  0.62709086     0.18400
C2039       C  0.66772030  0.05815321  0.61707683    -0.09500
C2040       C  0.67283958  0.06048222  0.60042098    -0.02500
H2041       H  0.71207543  0.12130910  0.62801854     0.04900
C2042       C  0.67667378  0.07869083  0.64465788     0.20400
H2043       H  0.66180472  0.04336667  0.59279042     0.10100
C2044       C  0.65369808  0.07614944  0.65015924    -0.15800
C2045       C  0.64858906  0.07524272  0.66675329     0.03100
C2046       C  0.66677846  0.07703945  0.67808298    -0.11200
C2047       C  0.68955174  0.07917630  0.67253340    -0.01200
C2048       C  0.69467978  0.08017925  0.65596153    -0.06300
H2049       H  0.63965826  0.07476051  0.64149005     0.06100
H2050       H  0.70354590  0.08032137  0.68114505     0.09500
Br2051     Br  0.64184723  0.02442986  0.62571869    -0.06000
Br2052     Br  0.73438915  0.14000707  0.59585869    -0.03000
Br2053     Br  0.61574427  0.06965861  0.67319581    -0.00100
Br2054     Br  0.72621678  0.08305964  0.64931428    -0.04500
C2055       C  0.83971555  0.41257335  0.34636142    -0.11900
C2056       C  0.82371897  0.41379665  0.33453294     0.03600
C2057       C  0.83056511  0.41623504  0.31814716    -0.12500
C2058       C  0.85316037  0.41746398  0.31332284     0.18400
C2059       C  0.86911751  0.41621440  0.32505407    -0.09500
C2060       C  0.86222408  0.41357735  0.34143500    -0.02500
H2061       H  0.81810625  0.41693789  0.30910397     0.04900
C2062       C  0.85977414  0.42002361  0.29597123     0.20400
H2063       H  0.87463101  0.41257334  0.35038224     0.10100
C2064       C  0.87720273  0.44491122  0.28946610    -0.15800
C2065       C  0.88386832  0.44809358  0.27303732     0.03100
C2066       C  0.87277531  0.42600138  0.26283094    -0.11200
C2067       C  0.85567637  0.40104781  0.26948850    -0.01200
C2068       C  0.84905585  0.39795531  0.28591879    -0.06300
H2069       H  0.88582751  0.46192796  0.29726916     0.06100
H2070       H  0.84706139  0.38390279  0.26182464     0.09500
Br2071     Br  0.90034173  0.41790807  0.31913623    -0.06000
Br2072     Br  0.79138488  0.41028498  0.33982667    -0.03000
Br2073     Br  0.90958290  0.48281638  0.26564630    -0.00100
Br2074     Br  0.82539843  0.36331907  0.29416754    -0.04500
C2075       C  0.92496423  0.08498091  0.59400658    -0.11900
C2076       C  0.90343516  0.07611367  0.60453418     0.03600
C2077       C  0.90674368  0.07515425  0.62120597    -0.12500
C2078       C  0.93123017  0.08325667  0.62764444     0.18400
C2079       C  0.95278948  0.09242227  0.61727316    -0.09500
C2080       C  0.94955476  0.09329056  0.60058130    -0.02500
H2081       H  0.89019353  0.06839962  0.62925356     0.04900
C2082       C  0.93370793  0.08175278  0.64524679     0.20400
H2083       H  0.96626777  0.10015393  0.59269171     0.10100
C2084       C  0.92515086  0.05750278  0.65228075    -0.15800
C2085       C  0.92664241  0.05512531  0.66901697     0.03100
C2086       C  0.93676123  0.07741743  0.67896009    -0.11200
C2087       C  0.94544114  0.10171666  0.67180363    -0.01200
C2088       C  0.94380210  0.10397357  0.65507693    -0.06300
H2089       H  0.91746906  0.04038908  0.64466844     0.06100
H2090       H  0.95313701  0.11896359  0.67928514     0.09500
Br2091     Br  0.48678337  0.10348632  0.62537592    -0.06000
Br2092     Br  0.86960544  0.06706469  0.59729607    -0.03000
Br2093     Br  0.91625448  0.02133854  0.67719967    -0.00100
Br2094     Br  0.95485564  0.13752604  0.64619581    -0.04500
C2095       C  0.92313511  0.31239984  0.59395829    -0.11900
C2096       C  0.92114631  0.29505336  0.60602657     0.03600
C2097       C  0.92414190  0.30231576  0.62234977    -0.12500
C2098       C  0.92907680  0.32670507  0.62687529     0.18400
C2099       C  0.93093084  0.34397066  0.61480874    -0.09500
C2100       C  0.92774499  0.33664379  0.59850895    -0.02500
H2101       H  0.92254459  0.28887263  0.63156935     0.04900
C2102       C  0.93261699  0.33393976  0.64420686     0.20400
H2103       H  0.92915917  0.35004504  0.58933075     0.10100
C2104       C  0.95751873  0.35344064  0.64979204    -0.15800
C2105       C  0.96168352  0.36088533  0.66608901     0.03100
C2106       C  0.94066006  0.34843848  0.67719651    -0.11200
C2107       C  0.91566152  0.32907555  0.67152101    -0.01200
C2108       C  0.91154492  0.32172059  0.65518929    -0.06300
H2109       H  0.97377575  0.36314379  0.64134788     0.06100
H2110       H  0.89926957  0.31947684  0.67985800     0.09500
Br2111     Br  0.93725899  0.37750298  0.62001406    -0.06000
Br2112     Br  0.91268863  0.26066277  0.60097943    -0.03000
Br2113     Br  0.99598923  0.38959602  0.67201569    -0.00100
Br2114     Br  0.87673231  0.29550444  0.64830834    -0.04500
C2115       C  0.59949101  0.16970820  0.34593180    -0.11900
C2116       C  0.60065131  0.14892362  0.33972616     0.03600
C2117       C  0.59906688  0.14468871  0.32301140    -0.12500
C2118       C  0.59616090  0.16078806  0.31237707     0.18400
C2119       C  0.59444458  0.18116682  0.31854010    -0.09500
C2120       C  0.59608419  0.18548463  0.33523311    -0.02500
H2121       H  0.59983310  0.12860827  0.31827646     0.04900
C2122       C  0.59420945  0.15561402  0.29488742     0.20400
H2123       H  0.59507942  0.20146777  0.33985353     0.10100
C2124       C  0.56948989  0.13890239  0.28801033    -0.15800
C2125       C  0.56682673  0.13378009  0.27139277     0.03100
C2126       C  0.58924416  0.14585899  0.26139487    -0.11200
C2127       C  0.61403926  0.16213357  0.26841788    -0.01200
C2128       C  0.61664464  0.16704318  0.28506390    -0.06300
H2129       H  0.55221891  0.12962492  0.29565706     0.06100
H2130       H  0.63144168  0.17128524  0.26089474     0.09500
Br2131     Br  0.58996035  0.20351498  0.30454937    -0.06000
Br2132     Br  0.60235501  0.12457504  0.35349792    -0.03000
Br2133     Br  0.53242561  0.10850052  0.26339793    -0.00100
Br2134     Br  0.65106897  0.18941596  0.29392352    -0.04500
C2135       C  0.59815581  0.40906142  0.34388288    -0.11900
C2136       C  0.60250673  0.43124201  0.33551071     0.03600
C2137       C  0.60268882  0.43156308  0.31854492    -0.12500
C2138       C  0.59861684  0.41005328  0.30977756     0.18400
C2139       C  0.59406142  0.38786110  0.31810365    -0.09500
C2140       C  0.59368574  0.38742470  0.33502929    -0.02500
H2141       H  0.60586475  0.44857056  0.31215098     0.04900
C2142       C  0.59886625  0.41089928  0.29192968     0.20400
H2143       H  0.59039191  0.37028506  0.34130466     0.10100
C2144       C  0.62206109  0.41880075  0.28362601    -0.15800
C2145       C  0.62282286  0.41945142  0.26666967     0.03100
C2146       C  0.60004787  0.41214574  0.25779694    -0.11200
C2147       C  0.57675018  0.40386469  0.26620426    -0.01200
C2148       C  0.57607528  0.40332796  0.28314306    -0.06300
H2149       H  0.63953664  0.42422918  0.29037108     0.06100
H2150       H  0.55910016  0.39822715  0.25958841     0.09500
Br2151     Br  0.58835127  0.35781283  0.30680519    -0.06000
Br2152     Br  0.60668005  0.46084908  0.34656521    -0.03000
Br2153     Br  0.65495619  0.42874818  0.25636158    -0.00100
Br2154     Br  0.54369166  0.39210192  0.29385087    -0.04500
C2155       C  0.53294090  0.25912414  0.92720167    -0.11900
C2156       C  0.54548415  0.28067186  0.93786378     0.03600
C2157       C  0.53963636  0.27685592  0.95442882    -0.12500
C2158       C  0.52169192  0.25183584  0.96060608     0.18400
C2159       C  0.50959192  0.23030080  0.95008687    -0.09500
C2160       C  0.51530373  0.23404029  0.93353511    -0.02500
H2161       H  0.54928174  0.29344224  0.96257218     0.04900
C2162       C  0.51551158  0.24859346  0.97803912     0.20400
H2163       H  0.00563665  0.21726937  0.92553577     0.10100
C2164       C  0.99451312  0.24974409  0.98351328    -0.15800
C2165       C  0.98797732  0.24669107  0.99996006     0.03100
C2166       C  0.50289574  0.24278612  0.01124157    -0.11200
C2167       C  0.52359439  0.24108135  0.00565060    -0.01200
C2168       C  0.52999145  0.24400177  0.98916577    -0.06300
H2169       H  0.98295066  0.25268899  0.97489897     0.06100
H2170       H  0.53502371  0.23779781  0.01415544     0.09500
Br2171     Br  0.98518174  0.19551598  0.95785888    -0.06000
Br2172     Br  0.57215782  0.31530519  0.93087474    -0.03000
Br2173     Br  0.95722970  0.24583530  0.00602978    -0.00100
Br2174     Br  0.55844505  0.24143207  0.98227940    -0.04500
C2175       C  0.77346920  0.51438140  0.01192029    -0.11900
C2176       C  0.74962851  0.50233891  0.00326847     0.03600
C2177       C  0.74950628  0.49896873  0.98651114    -0.12500
C2178       C  0.77266469  0.50697372  0.97817321     0.18400
C2179       C  0.79636868  0.01859578  0.98673226    -0.09500
C2180       C  0.79663157  0.02220429  0.00346882    -0.02500
H2181       H  0.73112924  0.48963755  0.97994445     0.04900
C2182       C  0.77162775  0.50299539  0.96052303     0.20400
H2183       H  0.81512846  0.03150254  0.00986408     0.10100
C2184       C  0.77030115  0.02046030  0.95022655    -0.15800
C2185       C  0.76900020  0.01713351  0.93341271     0.03100
C2186       C  0.76888245  0.49588850  0.92671483    -0.11200
C2187       C  0.77042350  0.47855159  0.93709477    -0.01200
C2188       C  0.77160967  0.48186154  0.95389167    -0.06300
H2189       H  0.77050667  0.03689228  0.95531222     0.06100
H2190       H  0.77016075  0.46203069  0.93214000     0.09500
Br2191     Br  0.82879075  0.03009155  0.97598161    -0.06000
Br2192     Br  0.71630440  0.48809249  0.01358147    -0.03000
Br2193     Br  0.76918246  0.04314393  0.92026128    -0.00100
Br2194     Br  0.77247689  0.45673784  0.96735448    -0.04500
C2195       C  0.77011304  0.24780271  0.01397003    -0.11900
C2196       C  0.75918671  0.22560908  0.00384432     0.03600
C2197       C  0.75946872  0.22866276  0.98703448    -0.12500
C2198       C  0.77096259  0.25351729  0.98007947     0.18400
C2199       C  0.78259734  0.27568112  0.99006460    -0.09500
C2200       C  0.78201763  0.27270383  0.00686210    -0.02500
H2201       H  0.75089558  0.21159175  0.97931132     0.04900
C2202       C  0.77007203  0.25588263  0.96238697     0.20400
H2203       H  0.79084131  0.28998289  0.01440526     0.10100
C2204       C  0.75220354  0.26099175  0.95577710    -0.15800
C2205       C  0.75028231  0.26269325  0.93901716     0.03100
C2206       C  0.76644214  0.25923791  0.92867652    -0.11200
C2207       C  0.78471592  0.25470087  0.93530220    -0.01200
C2208       C  0.78650565  0.25282270  0.95207354    -0.06300
H2209       H  0.73969640  0.26362020  0.96370751     0.06100
H2210       H  0.79732832  0.25218833  0.92738173     0.09500
Br2211     Br  0.80012519  0.31036311  0.98124166    -0.06000
Br2212     Br  0.74568780  0.19097246  0.01186505    -0.03000
Br2213     Br  0.72628176  0.27102281  0.93089034    -0.00100
Br2214     Br  0.81174518  0.24635539  0.96039757    -0.04500
N2215       N  0.73360559  0.68761884  0.09854364    -0.27200
N2216       N  0.74895372  0.69641590  0.11141889    -0.35100
C2217       C  0.74041436  0.67709454  0.12231235     0.01100
C2218       C  0.71866792  0.65496250  0.11601081     0.07100
C2219       C  0.71472326  0.66225284  0.10093763    -0.06000
H2220       H  0.75026243  0.67868381  0.13357749     0.07800
H2221       H  0.70022213  0.64972240  0.09201134     0.09000
Cu2222     Cu  0.78341408  0.73243281  0.11280034     0.44200
Cu2223     Cu  0.74229072  0.70966603  0.07756728     0.42000
Cu2224     Cu  0.80814444  0.77083763  0.07713075     0.43900
N2225       N  0.82050818  0.76546444  0.11127004    -0.34600
N2226       N  0.82993008  0.77994191  0.09804893    -0.28900
C2227       C  0.85541556  0.79838968  0.10031156    -0.05000
C2228       C  0.86218734  0.79504457  0.11568214     0.07200
C2229       C  0.83962653  0.77409405  0.12230604     0.01000
H2230       H  0.86828704  0.81223696  0.09117803     0.08700
H2231       H  0.83751303  0.76500652  0.13396968     0.07800
N2232       N  0.78406508  0.75454105  0.05721165    -0.36100
N2233       N  0.76030881  0.73293460  0.05731311    -0.28300
C2234       C  0.75127297  0.72734786  0.04202868    -0.03500
C2235       C  0.77045616  0.74601013  0.03181077     0.05100
C2236       C  0.79077049  0.76309381  0.04190662     0.03200
H2237       H  0.73219342  0.71065315  0.03866280     0.08300
H2238       H  0.80957360  0.78008292  0.03833105     0.07100
N2239       N  0.80020593  0.81372741  0.84286165    -0.27200
N2240       N  0.78571837  0.80383674  0.82969813    -0.35100
C2241       C  0.79424668  0.82249930  0.81833496     0.01100
C2242       C  0.81515457  0.84528443  0.82465091     0.07100
C2243       C  0.81859562  0.83911059  0.84018827    -0.06000
H2244       H  0.78490941  0.82000303  0.80673601     0.07800
H2245       H  0.83228340  0.85241392  0.84921317     0.09000
Cu2246     Cu  0.75203552  0.76741591  0.82867707     0.44200
Cu2247     Cu  0.79081491  0.79328102  0.86450021     0.42000
Cu2248     Cu  0.72430026  0.73428508  0.86629701     0.43900
N2249       N  0.71447235  0.73573808  0.83088355    -0.34600
N2250       N  0.70387046  0.72335222  0.84466377    -0.28900
C2251       C  0.67825414  0.70554508  0.84222939    -0.05000
C2252       C  0.67270499  0.70730352  0.82620029     0.07200
C2253       C  0.69604753  0.72651847  0.81936564     0.01000
H2254       H  0.66450976  0.69335049  0.85159871     0.08700
H2255       H  0.69922847  0.73411975  0.80713651     0.07800
N2256       N  0.74886122  0.75106857  0.88606835    -0.36100
N2257       N  0.77318484  0.77177180  0.88534509    -0.28300
C2258       C  0.78332009  0.77757446  0.90037192    -0.03500
C2259       C  0.76433350  0.75996114  0.91100194     0.05100
C2260       C  0.74278911  0.74338776  0.90158890     0.03200
H2261       H  0.80277909  0.79397455  0.90339328     0.08300
H2262       H  0.72401232  0.72706418  0.90571832     0.07100
O2263       O  0.72359644  0.74024057  0.46995858    -0.72900
O2264       O  0.79310189  0.76653547  0.49047461    -0.73900
O2265       O  0.77244801  0.78851795  0.47028102    -0.62500
O2266       O  0.74408936  0.71825316  0.49031735    -0.70900
O2267       O  0.75624621  0.70614713  0.46857304    -0.70500
O2268       O  0.78445170  0.77655276  0.44840097    -0.61700
O2269       O  0.80506167  0.75449027  0.46859984    -0.74200
O2270       O  0.73566730  0.72798797  0.44823196    -0.73000
Cu2271     Cu  0.75787447  0.75380641  0.48102204     1.04600
Cu2272     Cu  0.77078282  0.74086723  0.45768622     1.04300
C2273       C  0.71880137  0.73016696  0.45582179     0.93300
C2274       C  0.80995396  0.76444833  0.48275762     0.92400
C2275       C  0.78272196  0.79356732  0.45617895     0.84600
C2276       C  0.74589984  0.70121756  0.48266560     0.90900
O2277       O  0.59570546  0.88053254  0.80198128    -0.72900
O2278       O  0.62523942  0.95133772  0.78227604    -0.73900
O2279       O  0.64464726  0.92851485  0.80285314    -0.62500
O2280       O  0.57614953  0.90327651  0.78126370    -0.70900
O2281       O  0.56337947  0.91503928  0.80287126    -0.70500
O2282       O  0.63227874  0.94064850  0.82448096    -0.61700
O2283       O  0.61247477  0.96311628  0.80388383    -0.74200
O2284       O  0.58308855  0.89238068  0.82362367    -0.73000
Cu2285     Cu  0.61086078  0.91548658  0.79134799     1.04600
Cu2286     Cu  0.59732220  0.92819011  0.81447976     1.04300
C2287       C  0.58516031  0.87546367  0.81601068     0.93300
C2288       C  0.62328330  0.96828614  0.78993697     0.92400
C2289       C  0.64923117  0.93837257  0.81703886     0.84600
C2290       C  0.55911430  0.90554164  0.78857473     0.90900
N2291       N  0.74837335  0.55430460  0.09432089    -0.27200
N2292       N  0.76109665  0.55820956  0.10807699    -0.35100
C2293       C  0.75129634  0.56621374  0.11942346     0.01100
C2294       C  0.73125961  0.56712817  0.11250526     0.07100
C2295       C  0.72983771  0.55941761  0.09659115    -0.06000
H2296       H  0.75782352  0.57035766  0.13189360     0.07800
H2297       H  0.71622389  0.55742099  0.08740120     0.09000
Cu2298     Cu  0.79049682  0.55164683  0.11101289     0.44200
Cu2299     Cu  0.75697644  0.54207555  0.07331483     0.42000
Cu2300     Cu  0.80750190  0.52797629  0.07639654     0.43900
N2301       N  0.82147045  0.54711334  0.11071870    -0.34600
N2302       N  0.82789642  0.53860569  0.09804989    -0.28900
C2303       C  0.85085501  0.54126928  0.10103448    -0.05000
C2304       C  0.85917949  0.55201241  0.11628684     0.07200
C2305       C  0.84004203  0.55531398  0.12212667     0.01000
H2306       H  0.86144213  0.53721812  0.09235833     0.08700
H2307       H  0.84041388  0.56459280  0.13334621     0.07800
N2308       N  0.78749471  0.02434654  0.05526983    -0.36100
N2309       N  0.76961854  0.03006255  0.05410327    -0.28300
C2310       C  0.76169883  0.02724906  0.03862127    -0.03500
C2311       C  0.77487587  0.01891657  0.02961084     0.05100
C2312       C  0.79129444  0.01759422  0.04056062     0.03200
H2313       H  0.74799206  0.03181004  0.03423453     0.08300
H2314       H  0.80523299  0.01239897  0.03799875     0.07100
N2315       N  0.78845961  0.94885358  0.84555109    -0.27200
N2316       N  0.77373031  0.94211282  0.83242880    -0.35100
C2317       C  0.78283153  0.93317029  0.82121829     0.01100
C2318       C  0.80441534  0.93447206  0.82757691     0.07100
C2319       C  0.80751216  0.94454570  0.84300844    -0.06000
H2320       H  0.77461806  0.92666813  0.80923976     0.07800
H2321       H  0.82258075  0.94863459  0.85169631     0.09000
Cu2322     Cu  0.74243994  0.94602661  0.83015773     0.44200
Cu2323     Cu  0.78174386  0.96370615  0.86609212     0.42000
Cu2324     Cu  0.72844566  0.97413105  0.86369228     0.43900
N2325       N  0.71125558  0.95030782  0.83060577    -0.34600
N2326       N  0.70581989  0.96037590  0.84289130    -0.28900
C2327       C  0.68316012  0.95837280  0.83983990    -0.05000
C2328       C  0.67410276  0.94657231  0.82489155     0.07200
C2329       C  0.69240409  0.94181353  0.81937269     0.01000
H2330       H  0.67362374  0.96430318  0.84809971     0.08700
H2331       H  0.69157106  0.93193897  0.80830303     0.07800
N2332       N  0.75166269  0.98213110  0.88398202    -0.36100
N2333       N  0.77057366  0.97781564  0.88494589    -0.28300
C2334       C  0.78011300  0.98286371  0.90012087    -0.03500
C2335       C  0.76681001  0.99104986  0.90909418     0.05100
C2336       C  0.74879495  0.99018261  0.89850217     0.03200
H2337       H  0.79519171  0.98015681  0.90440925     0.08300
H2338       H  0.73377969  0.99377603  0.90133208     0.07100
N2339       N  0.96602614  0.76938465  0.09428327    -0.27200
N2340       N  0.95913408  0.75468563  0.10745763    -0.35100
C2341       C  0.95077345  0.76420506  0.11875433     0.01100
C2342       C  0.95253159  0.78599239  0.11241695     0.07100
C2343       C  0.96235719  0.78884726  0.09689954    -0.06000
H2344       H  0.94393130  0.75584688  0.13069734     0.07800
H2345       H  0.96629415  0.80375156  0.08812315     0.09000
Cu2346     Cu  0.96067045  0.72202317  0.10961076     0.44200
Cu2347     Cu  0.47883126  0.76124363  0.07325653     0.42000
Cu2348     Cu  0.48098005  0.70285728  0.07453410     0.43900
N2349       N  0.96154959  0.68888348  0.10885533    -0.34600
N2350       N  0.96893954  0.68170990  0.09598510    -0.28900
C2351       C  0.96581143  0.65857349  0.09905408    -0.05000
C2352       C  0.95599854  0.65094246  0.11459600     0.07200
C2353       C  0.95355339  0.67059448  0.12047005     0.01000
H2354       H  0.96963571  0.64775808  0.09043260     0.08700
H2355       H  0.94576395  0.67119377  0.13210562     0.07800
N2356       N  0.48923780  0.72583942  0.05406431    -0.36100
N2357       N  0.48815201  0.74682426  0.05355310    -0.28300
C2358       C  0.49302705  0.75621044  0.03831810    -0.03500
C2359       C  0.49722621  0.74029717  0.02877848     0.05100
C2360       C  0.49499712  0.72143991  0.03919183     0.03200
H2361       H  0.49337745  0.77331903  0.03447490     0.08300
H2362       H  0.49669148  0.70526339  0.03609299     0.07100
N2363       N  0.56768117  0.73236776  0.84411010    -0.27200
N2364       N  0.57593840  0.74772783  0.83120184    -0.35100
C2365       C  0.58493696  0.73837293  0.82020930     0.01100
C2366       C  0.58214240  0.71603353  0.82650123     0.07100
C2367       C  0.57108927  0.71271167  0.84165522    -0.06000
H2368       H  0.59291217  0.74720221  0.80850080     0.07800
H2369       H  0.56618224  0.69737425  0.85032983     0.09000
Cu2370     Cu  0.57478594  0.78074538  0.82906580     0.44200
Cu2371     Cu  0.55369740  0.73991138  0.86470676     0.42000
Cu2372     Cu  0.55107933  0.79794123  0.86351321     0.43900
N2373       N  0.57186271  0.81282480  0.82950651    -0.34600
N2374       N  0.56306780  0.81913176  0.84208762    -0.28900
C2375       C  0.56540707  0.84190123  0.83896214    -0.05000
C2376       C  0.57616863  0.85023417  0.82367771     0.07200
C2377       C  0.57995456  0.83132750  0.81801706     0.01000
H2378       H  0.56073508  0.85218314  0.84747423     0.08700
H2379       H  0.58904091  0.83158578  0.80671059     0.07800
N2380       N  0.54433807  0.77570509  0.88414410    -0.36100
N2381       N  0.54518741  0.75459180  0.88452264    -0.28300
C2382       C  0.54120206  0.74555419  0.89980848    -0.03500
C2383       C  0.53802258  0.76193129  0.90957693     0.05100
C2384       C  0.53981278  0.78066578  0.89920365     0.03200
H2385       H  0.54123468  0.72863676  0.90359622     0.08300
H2386       H  0.53791350  0.79669774  0.90230770     0.07100
O2387       O  0.88979539  0.57238612  0.13764348    -0.72900
O2388       O  0.96047133  0.60171766  0.15732761    -0.73900
O2389       O  0.93784972  0.62158200  0.13684879    -0.62500
O2390       O  0.91244018  0.55256843  0.15799028    -0.70900
O2391       O  0.92430407  0.54031843  0.13616804    -0.70500
O2392       O  0.94993138  0.60925085  0.11517564    -0.61700
O2393       O  0.97233733  0.58918407  0.13564762    -0.74200
O2394       O  0.90178844  0.56013671  0.11588534    -0.73000
Cu2395     Cu  0.92471446  0.58752134  0.14821510     1.04600
Cu2396     Cu  0.93752969  0.57432634  0.12495814     1.04300
C2397       C  0.88470869  0.56177156  0.12366340     0.93300
C2398       C  0.97736862  0.59962019  0.14968409     0.92400
C2399       C  0.94768250  0.62616827  0.12262191     0.84600
C2400       C  0.91458286  0.53567236  0.15040855     0.90900
N2401       N  0.65787848  0.94123412  0.42866948    -0.27200
N2402       N  0.64761542  0.92770113  0.44216546    -0.35100
C2403       C  0.66626302  0.93630737  0.45352856     0.01100
C2404       C  0.68941112  0.45631241  0.44688031     0.07100
C2405       C  0.68347604  0.45911382  0.43113712    -0.06000
H2406       H  0.66335433  0.92791642  0.46550531     0.07800
H2407       H  0.69695682  0.47232107  0.42194985     0.09000
Cu2408     Cu  0.61017142  0.89552112  0.44396977     0.44200
Cu2409     Cu  0.63707998  0.93205474  0.40717297     0.42000
Cu2410     Cu  0.57527336  0.86815993  0.40676654     0.43900
N2411       N  0.57762034  0.85835066  0.44216900    -0.34600
N2412       N  0.56481740  0.84786958  0.42851058    -0.28900
C2413       C  0.54689598  0.82231696  0.43103415    -0.05000
C2414       C  0.54892848  0.81663606  0.44698737     0.07200
C2415       C  0.56849086  0.83987971  0.45369946     0.03700
H2416       H  0.03451403  0.80863430  0.42171587     0.08700
H2417       H  0.57656259  0.84287807  0.46576543     0.07800
N2418       N  0.59115940  0.89255998  0.38677428    -0.36100
N2419       N  0.61325510  0.91592298  0.38697996    -0.28300
C2420       C  0.61846827  0.92594643  0.37189877    -0.03500
C2421       C  0.59871573  0.90805496  0.36173118     0.05100
C2422       C  0.58187802  0.88705669  0.37154702     0.03200
H2423       H  0.63610362  0.94423147  0.36844238     0.08300
H2424       H  0.56452623  0.86870374  0.36779069     0.07100
N2425       N  0.54040722  0.88264354  0.17348989    -0.27200
N2426       N  0.54987203  0.89706501  0.16023226    -0.35100
C2427       C  0.53042771  0.88966623  0.14960511     0.01100
C2428       C  0.00760553  0.86959547  0.15650519     0.07100
C2429       C  0.01454351  0.86542834  0.17160000    -0.06000
H2430       H  0.53259193  0.89905121  0.13805069     0.07800
H2431       H  0.00159347  0.85184152  0.18083034     0.09000
Cu2432     Cu  0.58717838  0.92933018  0.15813837     0.44200
Cu2433     Cu  0.56233828  0.89020676  0.19430276     0.42000
Cu2434     Cu  0.62380209  0.95423665  0.19504226     0.43900
N2435       N  0.61904072  0.96678719  0.16048082    -0.34600
N2436       N  0.63248499  0.97642779  0.17404519    -0.28900
C2437       C  0.64969495  0.50230498  0.17209883    -0.05000
C2438       C  0.64655226  0.50904790  0.15663628     0.07200
C2439       C  0.62704845  0.98608124  0.14961429     0.01000
H2440       H  0.66256391  0.51540884  0.18150001     0.08700
H2441       H  0.61838953  0.98372103  0.13778560     0.07800
N2442       N  0.60834967  0.92904266  0.21483263    -0.36100
N2443       N  0.58605143  0.90585837  0.21452555    -0.28300
C2444       C  0.58033323  0.89584378  0.22960177    -0.03500
C2445       C  0.60006101  0.91340114  0.23990548     0.05100
C2446       C  0.61742204  0.93427712  0.23012803     0.03200
H2447       H  0.56250559  0.87759608  0.23294173     0.08300
H2448       H  0.63453534  0.95268894  0.23400684     0.07100
N2449       N  0.57797207  0.71544180  0.42679991    -0.27200
N2450       N  0.59315294  0.72331807  0.43975383    -0.35100
C2451       C  0.58375250  0.73204341  0.45086377     0.01100
C2452       C  0.56150703  0.72938590  0.44461600     0.07100
C2453       C  0.55831156  0.71880213  0.42935407    -0.06000
H2454       H  0.59221983  0.73927025  0.46272743     0.07800
H2455       H  0.54277340  0.71369925  0.42080401     0.09000
Cu2456     Cu  0.62525910  0.72108038  0.44223261     0.44200
Cu2457     Cu  0.58480808  0.70055371  0.40642268     0.42000
Cu2458     Cu  0.64131384  0.69559105  0.40847277     0.43900
N2459       N  0.65677399  0.71761350  0.44205471    -0.34600
N2460       N  0.66293622  0.70845203  0.42962228    -0.28900
C2461       C  0.68559312  0.71063155  0.43283732    -0.05000
C2462       C  0.69389945  0.72164740  0.44802767     0.07200
C2463       C  0.67517221  0.72575203  0.45355734     0.01000
H2464       H  0.69571964  0.70549743  0.42449221     0.08700
H2465       H  0.67544949  0.73502578  0.46476759     0.07800
N2466       N  0.61775558  0.68609595  0.38826302    -0.36100
N2467       N  0.59737233  0.68816268  0.38746453    -0.28300
C2468       C  0.58738750  0.68205795  0.37241603    -0.03500
C2469       C  0.60199168  0.67551442  0.36338740     0.05100
C2470       C  0.62120126  0.67847976  0.37376515     0.03200
H2471       H  0.57100024  0.68277156  0.36828523     0.08300
H2472       H  0.63714756  0.67631249  0.37084129     0.07100
N2473       N  0.61515363  0.60813348  0.17887859    -0.27200
N2474       N  0.60102351  0.60229182  0.16554293    -0.35100
C2475       C  0.61093550  0.59460720  0.15406349     0.01100
C2476       C  0.63245443  0.59586579  0.16046852     0.07100
C2477       C  0.63462493  0.60450226  0.17621641    -0.06000
H2478       H  0.60340921  0.58915941  0.14184971     0.07800
H2479       H  0.64939810  0.60816616  0.18502243     0.09000
Cu2480     Cu  0.56985153  0.60631360  0.16321536     0.44200
Cu2481     Cu  0.60731793  0.62115631  0.19981192     0.42000
Cu2482     Cu  0.55433084  0.63206613  0.19721225     0.43900
N2483       N  0.53923003  0.61141263  0.16331927    -0.34600
N2484       N  0.53339112  0.62086044  0.17575742    -0.28900
C2485       C  0.51100546  0.61928571  0.17253453    -0.05000
C2486       C  0.50250920  0.60837157  0.15732350     0.07200
C2487       C  0.52088271  0.60370858  0.15181705     0.01000
H2488       H  0.50099306  0.62440918  0.18096586     0.08700
H2489       H  0.52021191  0.59405838  0.14067441     0.07800
N2490       N  0.57510308  0.63656252  0.21813180    -0.36100
N2491       N  0.59424424  0.63257892  0.21907706    -0.28300
C2492       C  0.60242422  0.63570643  0.23452143    -0.03500
C2493       C  0.58744348  0.64151933  0.24375977     0.05100
C2494       C  0.57052207  0.64220836  0.23296620     0.03200
H2495       H  0.61759786  0.63312465  0.23878916     0.08300
H2496       H  0.55578495  0.64623474  0.23567866     0.07100
O2497       O  0.65114805  0.53828507  0.13598474    -0.72900
O2498       O  0.68571042  0.60950942  0.11586343    -0.73900
O2499       O  0.69281026  0.56758767  0.11392935    -0.62500
O2500       O  0.64391719  0.58031778  0.13788491    -0.70900
O2501       O  0.67151233  0.59660088  0.15866326    -0.70500
O2502       O  0.72003889  0.58319750  0.13490612    -0.61700
O2503       O  0.71333144  0.62550583  0.13663339    -0.74200
O2504       O  0.67838901  0.55463642  0.15693213    -0.73000
Cu2505     Cu  0.66737952  0.57332370  0.12519575     1.04600
Cu2506     Cu  0.69681142  0.59061123  0.14748943     1.04300
C2507       C  0.65932662  0.53521943  0.14952922     0.93300
C2508       C  0.70513927  0.62876151  0.12316605     0.92400
C2509       C  0.71397651  0.57308238  0.12077288     0.84600
C2510       C  0.65007185  0.59058700  0.15197516     0.90900
O2511       O  0.55087962  0.74615199  0.46682022    -0.72900
O2512       O  0.50311800  0.76007755  0.49079700    -0.73900
O2513       O  0.50974230  0.71800972  0.48924891    -0.62500
O2514       O  0.54414378  0.78835783  0.46826998    -0.70900
O2515       O  0.51641997  0.77133234  0.44757311    -0.70500
O2516       O  0.98163372  0.70131513  0.46872928    -0.61700
O2517       O  0.97528777  0.74382412  0.47012611    -0.74200
O2518       O  0.52273975  0.72909744  0.44632862    -0.73000
Cu2519     Cu  0.52800888  0.75378078  0.47948815     1.04600
Cu2520     Cu  0.99799347  0.73576766  0.45748635     1.04300
C2521       C  0.54427575  0.73525475  0.45292489     0.93300
C2522       C  0.98174349  0.75431416  0.48415363     0.92400
C2523       C  0.99012597  0.69855910  0.48221672     0.84600
C2524       C  0.53579317  0.79091642  0.45465440     0.90900
N2525       N  0.94721709  0.77211299  0.51120723    -0.27200
N2526       N  0.93385727  0.76760107  0.49764496    -0.35100
C2527       C  0.94379476  0.76011492  0.48606877     0.01100
C2528       C  0.96456128  0.76015741  0.49262266     0.07100
C2529       C  0.96630140  0.76790185  0.50855632    -0.06000
H2530       H  0.93671168  0.75548527  0.47372619     0.07800
H2531       H  0.48036730  0.77032319  0.51754493     0.09000
Cu2532     Cu  0.90328432  0.77241647  0.49511726     0.44200
Cu2533     Cu  0.93864517  0.78352896  0.53263425     0.42000
Cu2534     Cu  0.88656262  0.79513313  0.53015482     0.43900
N2535       N  0.87220220  0.77668341  0.49579173    -0.34600
N2536       N  0.86588061  0.78488900  0.50865738    -0.28900
C2537       C  0.84320236  0.78285777  0.50576973    -0.05000
C2538       C  0.83499871  0.77290230  0.49034952     0.07200
C2539       C  0.85385388  0.76931444  0.48433548     0.01000
H2540       H  0.83284607  0.78706056  0.51453562     0.08700
H2541       H  0.85356325  0.76066003  0.47285978     0.07800
N2542       N  0.90717605  0.79959424  0.55111013    -0.36100
N2543       N  0.92559910  0.79460080  0.55219185    -0.28300
C2544       C  0.93396865  0.79807489  0.56762837    -0.03500
C2545       C  0.92013541  0.80562850  0.57662517     0.05100
C2546       C  0.90352774  0.80664094  0.56575613     0.03200
H2547       H  0.94920196  0.79560110  0.57192752     0.08300
H2548       H  0.88950282  0.81172793  0.56835433     0.07100
N2549       N  0.91660795  0.88922346  0.75995319    -0.27200
N2550       N  0.93188039  0.89662952  0.77286221    -0.35100
C2551       C  0.92220725  0.90433571  0.78448177     0.01100
C2552       C  0.89967275  0.90157493  0.77867166     0.07100
C2553       C  0.89661307  0.89193374  0.76308500    -0.06000
H2554       H  0.93087017  0.91123382  0.79633232     0.07800
H2555       H  0.88107366  0.88728025  0.75465381     0.09000
Cu2556     Cu  0.96497141  0.89574912  0.77452380     0.44200
Cu2557     Cu  0.92429991  0.87621501  0.73876126     0.42000
Cu2558     Cu  0.98380186  0.87528628  0.73971117     0.43900
N2559       N  0.99755427  0.89387519  0.77409232    -0.34600
N2560       N  0.00475775  0.88644746  0.76126291    -0.28900
C2561       C  0.52742403  0.88863540  0.76459358    -0.05000
C2562       C  0.53467733  0.89785997  0.78027741     0.07200
C2563       C  0.01529407  0.90093666  0.78593580     0.01000
H2564       H  0.53820976  0.88459710  0.75606952     0.08700
H2565       H  0.01455504  0.90857066  0.79758217     0.07800
N2566       N  0.95987823  0.86588083  0.71955009    -0.36100
N2567       N  0.93829967  0.86597858  0.71917618    -0.28300
C2568       C  0.92803938  0.85947204  0.70416631    -0.03500
C2569       C  0.94411153  0.85547797  0.69458571     0.05100
C2570       C  0.96390933  0.85940266  0.70481039     0.03200
H2571       H  0.91049861  0.85835615  0.70039273     0.08300
H2572       H  0.98008293  0.85763946  0.70180608     0.07100
O2573       O  0.85564945  0.94458647  0.78287962    -0.72900
O2574       O  0.81999306  0.87403039  0.80365336    -0.73900
O2575       O  0.81441491  0.91710191  0.80530243    -0.62500
O2576       O  0.86108001  0.90168827  0.78101252    -0.70900
O2577       O  0.88931759  0.91786021  0.80146215    -0.70500
O2578       O  0.84250313  0.93327015  0.82583253    -0.61700
O2579       O  0.84818472  0.89044696  0.82413569    -0.74200
O2580       O  0.88373243  0.96082732  0.80342755    -0.73000
Cu2581     Cu  0.83674836  0.90873152  0.79251582     1.04600
Cu2582     Cu  0.86695414  0.92617677  0.81442339     1.04300
C2583       C  0.87532422  0.96385370  0.78999632     0.93300
C2584       C  0.82847303  0.87111890  0.81711207     0.92400
C2585       C  0.82117999  0.92785518  0.81924097     0.84600
C2586       C  0.88256905  0.90734500  0.78743632     0.90900
N2587       N  0.86377775  0.55043260  0.50959975    -0.27200
N2588       N  0.87378832  0.56399637  0.49608861    -0.35100
C2589       C  0.85499382  0.55517732  0.48482264     0.01100
C2590       C  0.83204046  0.53501371  0.49155655     0.07100
C2591       C  0.83821135  0.53234086  0.50725339    -0.06000
H2592       H  0.85769807  0.56343935  0.47282072     0.07800
H2593       H  0.82493316  0.01906062  0.51647647     0.09000
Cu2594     Cu  0.91134184  0.59595056  0.49397138     0.44200
Cu2595     Cu  0.88484733  0.55985146  0.53091562     0.42000
Cu2596     Cu  0.94893562  0.62195116  0.53026825     0.43900
N2597       N  0.94593988  0.63174138  0.49504081    -0.34600
N2598       N  0.95990718  0.64169393  0.50838958    -0.28900
C2599       C  0.47904166  0.66679735  0.50561268    -0.05000
C2600       C  0.47662673  0.67276963  0.48980841     0.07200
C2601       C  0.95558617  0.65011331  0.48344061     0.01000
H2602       H  0.49235995  0.68017616  0.51475694     0.08700
H2603       H  0.94673238  0.64766390  0.47166660     0.07800
N2604       N  0.93144842  0.59952746  0.55078952    -0.36100
N2605       N  0.90849489  0.57698339  0.55098935    -0.28300
C2606       C  0.90263191  0.56813082  0.56631308    -0.03500
C2607       C  0.92265761  0.58618818  0.57627382     0.05100
C2608       C  0.94072753  0.60564978  0.56598894     0.03200
H2609       H  0.88514099  0.54988751  0.56983867     0.08300
H2610       H  0.95908947  0.62329924  0.56934367     0.07100
N2611       N  0.90421894  0.52141049  0.76450960    -0.27200
N2612       N  0.91858054  0.53118238  0.77772623    -0.35100
C2613       C  0.90972350  0.51243622  0.78905614     0.01100
C2614       C  0.88877397  0.98976936  0.78261666     0.07100
C2615       C  0.88562888  0.99608378  0.76707780    -0.06000
H2616       H  0.91886558  0.51477245  0.80071701     0.07800
H2617       H  0.87203954  0.98289926  0.75796870     0.09000
Cu2618     Cu  0.95228995  0.56769414  0.77880716     0.44200
Cu2619     Cu  0.91387097  0.54181864  0.74297622     0.42000
Cu2620     Cu  0.97852685  0.60309368  0.74149298     0.43900
N2621       N  0.98910518  0.60078783  0.77667326    -0.34600
N2622       N  0.49911927  0.61398121  0.76304149    -0.28900
C2623       C  0.52445431  0.63278602  0.76550080    -0.05000
C2624       C  0.53045325  0.63093521  0.78139973     0.07200
C2625       C  0.50765054  0.61055770  0.78812478     0.01000
H2626       H  0.53778356  0.64577862  0.75620113     0.08700
H2627       H  0.50500208  0.60255751  0.80020810     0.07800
N2628       N  0.95421907  0.58576295  0.72169932    -0.36100
N2629       N  0.93078480  0.56380008  0.72230939    -0.28300
C2630       C  0.92075291  0.55750136  0.70729161    -0.03500
C2631       C  0.93890686  0.57618895  0.69668001     0.05100
C2632       C  0.95971571  0.59398428  0.70624919     0.03200
H2633       H  0.90167791  0.54055004  0.70439547     0.08300
H2634       H  0.97785794  0.61136343  0.70222208     0.07100
O2635       O  0.89150483  0.80079485  0.13646046    -0.72900
O2636       O  0.96222050  0.83722365  0.15683818    -0.73900
O2637       O  0.91902089  0.84234879  0.15861077    -0.62500
O2638       O  0.93500542  0.79589204  0.13467127    -0.70900
O2639       O  0.95088020  0.82376157  0.11397305    -0.70500
O2640       O  0.93453717  0.87006033  0.13782708    -0.61700
O2641       O  0.97816471  0.86515021  0.13615851    -0.74200
O2642       O  0.90736838  0.82848161  0.11566182    -0.73000
Cu2643     Cu  0.92634037  0.81806775  0.14735726     1.04600
Cu2644     Cu  0.94331998  0.84790365  0.12519738     1.04300
C2645       C  0.88824082  0.80882814  0.12293722     0.93300
C2646       C  0.98141895  0.85674956  0.14954472     0.92400
C2647       C  0.92406005  0.86343561  0.15187744     0.84600
C2648       C  0.94573469  0.80262759  0.12069003     0.90900
N2649       N  0.79750099  0.93501565  0.42900281    -0.27200
N2650       N  0.79219426  0.92127945  0.44250619    -0.35100
C2651       C  0.78301115  0.93026602  0.45364710     0.01100
C2652       C  0.78264492  0.95070102  0.44684151     0.07100
C2653       C  0.79206114  0.95330458  0.43124849    -0.06000
H2654       H  0.77701780  0.92245557  0.46577444     0.07800
H2655       H  0.79442803  0.96719053  0.42212717     0.09000
Cu2656     Cu  0.79661089  0.89031182  0.44512147     0.44200
Cu2657     Cu  0.81055081  0.92740752  0.40789259     0.42000
Cu2658     Cu  0.81825298  0.87283026  0.40968365     0.43900
N2659       N  0.79840382  0.85760989  0.44388856    -0.34600
N2660       N  0.80609697  0.85101718  0.43088332    -0.28900
C2661       C  0.80254897  0.82755850  0.43343096    -0.05000
C2662       C  0.79212326  0.81906639  0.44876867     0.07200
C2663       C  0.78982929  0.83860535  0.45507757     0.01000
H2664       H  0.80625314  0.81701852  0.42452873     0.08700
H2665       H  0.78143346  0.83849237  0.46662467     0.07800
N2666       N  0.82538178  0.89525622  0.38908263    -0.36100
N2667       N  0.82198551  0.91478193  0.38829354    -0.28300
C2668       C  0.82661747  0.92408957  0.37302914    -0.03500
C2669       C  0.83316698  0.90965945  0.36378458     0.05100
C2670       C  0.83247824  0.89176842  0.37439143     0.03200
H2671       H  0.82533912  0.94017854  0.36899035     0.08300
H2672       H  0.83617094  0.87682187  0.37153457     0.07100
N2673       N  0.90525589  0.89721233  0.17888374    -0.27200
N2674       N  0.90971405  0.91062458  0.16532772    -0.35100
C2675       C  0.91729142  0.90080057  0.15372454     0.01100
C2676       C  0.91744698  0.88011601  0.16026629     0.07100
C2677       C  0.90964059  0.87826775  0.17620906    -0.06000
H2678       H  0.92215963  0.90810275  0.14142050     0.07800
H2679       H  0.90756245  0.86438921  0.18524154     0.09000
Cu2680     Cu  0.90560426  0.94174102  0.16298884     0.44200
Cu2681     Cu  0.89454390  0.90602365  0.20050822     0.42000
Cu2682     Cu  0.88771989  0.96132922  0.19877738     0.43900
N2683       N  0.90256158  0.97363021  0.16379912    -0.34600
N2684       N  0.89596507  0.98089010  0.17698723    -0.28900
C2685       C  0.89808769  0.00358144  0.17405549    -0.05000
C2686       C  0.90649814  0.01088773  0.15826201     0.07200
C2687       C  0.90905845  0.99145992  0.15208375     0.01000
H2688       H  0.89505991  0.01456321  0.18300066     0.08700
H2689       H  0.91637930  0.99097159  0.14024718     0.07800
N2690       N  0.88364592  0.94085903  0.21967048    -0.36100
N2691       N  0.88612047  0.92074760  0.22043288    -0.28300
C2692       C  0.88276663  0.91244234  0.23589194    -0.03500
C2693       C  0.87833002  0.92834747  0.24528741     0.05100
C2694       C  0.87870357  0.94591794  0.23455452     0.03200
H2695       H  0.88373001  0.89619643  0.24000959     0.08300
H2696       H  0.87526603  0.96105480  0.23726277     0.07100
O2697       O  0.78715881  0.50084537  0.49077343    -0.72900
O2698       O  0.71778922  0.96221635  0.46839275    -0.73900
O2699       O  0.76277873  0.95933258  0.46838135    -0.62500
O2700       O  0.74253940  0.00365563  0.49084518    -0.70900
O2701       O  0.75894173  0.53172581  0.47025768    -0.70500
O2702       O  0.77890568  0.48724233  0.44771007    -0.61700
O2703       O  0.73432733  0.49026458  0.44779108    -0.74200
O2704       O  0.80361404  0.52869990  0.47006998    -0.73000
Cu2705     Cu  0.75193488  0.98046663  0.48029783     1.04600
Cu2706     Cu  0.76953308  0.51049160  0.45824804     1.04300
C2707       C  0.80637970  0.52083171  0.48380563     0.93300
C2708       C  0.71505276  0.97025187  0.45469954     0.92400
C2709       C  0.77429353  0.96644137  0.45464088     0.84600
C2710       C  0.74754673  0.52467512  0.48403686     0.90900
N2711       N  0.72599178  0.55710036  0.51010690    -0.27200
N2712       N  0.73315641  0.57201636  0.49701556    -0.35100
C2713       C  0.74188591  0.56275227  0.48578340     0.01100
C2714       C  0.74004114  0.54090083  0.49208132     0.07100
C2715       C  0.72985214  0.53777898  0.50750384    -0.06000
H2716       H  0.74911182  0.57137241  0.47393867     0.07800
H2717       H  0.72588622  0.52283597  0.51625921     0.09000
Cu2718     Cu  0.73150544  0.60461161  0.49486471     0.44200
Cu2719     Cu  0.71266781  0.56460749  0.53111937     0.42000
Cu2720     Cu  0.71079433  0.62304322  0.52989911     0.43900
N2721       N  0.73037390  0.63759647  0.49569223    -0.34600
N2722       N  0.72281145  0.64453533  0.50858611    -0.28900
C2723       C  0.72628324  0.66788316  0.50573527    -0.05000
C2724       C  0.73654664  0.67591111  0.49030989     0.07200
C2725       C  0.73881820  0.65623440  0.48427268     0.01000
H2726       H  0.72263801  0.67866675  0.51447794     0.08700
H2727       H  0.74704273  0.65596945  0.47272921     0.07800
N2728       N  0.70299797  0.60026752  0.55040378    -0.36100
N2729       N  0.70352956  0.57896999  0.55090239    -0.28300
C2730       C  0.69903847  0.56986355  0.56621682    -0.03500
C2731       C  0.69594692  0.58647258  0.57582448     0.05100
C2732       C  0.69824368  0.60531291  0.56536065     0.03200
H2733       H  0.69898243  0.55297530  0.57016489     0.08300
H2734       H  0.69690151  0.62171691  0.56839673     0.07100
N2735       N  0.63465500  0.60767122  0.76165588    -0.27200
N2736       N  0.62998626  0.59400539  0.77512183    -0.35100
C2737       C  0.62172141  0.60323898  0.78668839     0.01100
C2738       C  0.62136119  0.62384504  0.78024240     0.07100
C2739       C  0.62974566  0.62624112  0.76437518    -0.06000
H2740       H  0.61652627  0.59558151  0.79891083     0.07800
H2741       H  0.63181204  0.64021194  0.75541664     0.09000
Cu2742     Cu  0.63471701  0.56332088  0.77742072     0.44200
Cu2743     Cu  0.64613244  0.59938236  0.74008919     0.42000
Cu2744     Cu  0.65605502  0.54565866  0.74264569     0.43900
N2745       N  0.63797486  0.53158134  0.77700887    -0.34600
N2746       N  0.64588447  0.52493503  0.76415570    -0.28900
C2747       C  0.64307090  0.50189134  0.76704116    -0.05000
C2748       C  0.63285666  0.49374612  0.78246026     0.07200
C2749       C  0.62997151  0.51306143  0.78845780     0.01000
H2750       H  0.64671993  0.49118741  0.75824214     0.08700
H2751       H  0.62125526  0.51293946  0.79989209     0.07800
N2752       N  0.65915351  0.56544557  0.72154564    -0.36100
N2753       N  0.65488827  0.58437432  0.72041403    -0.28300
C2754       C  0.65668896  0.59137383  0.70474528    -0.03500
C2755       C  0.66233525  0.57608084  0.69567753     0.05100
C2756       C  0.66401572  0.56009519  0.70671800     0.03200
H2757       H  0.65423200  0.60654066  0.70032014     0.08300
H2758       H  0.66792958  0.54522501  0.70412306     0.07100
O2759       O  0.55871807  0.63696053  0.80283134    -0.72900
O2760       O  0.62765971  0.67398876  0.82524810    -0.73900
O2761       O  0.58384378  0.67819915  0.82534892    -0.62500
O2762       O  0.60286907  0.63298376  0.80244125    -0.70900
O2763       O  0.61909895  0.66111252  0.78188186    -0.70500
O2764       O  0.60095207  0.70645256  0.80488450    -0.61700
O2765       O  0.64475784  0.70193347  0.80461074    -0.74200
O2766       O  0.57535344  0.66519041  0.78232051    -0.73000
Cu2767     Cu  0.59263914  0.65449249  0.81467673     1.04600
Cu2768     Cu  0.61067087  0.68471628  0.79273825     1.04300
C2769       C  0.55605632  0.64513459  0.78919066     0.93300
C2770       C  0.64716847  0.69373446  0.81833454     0.92400
C2771       C  0.58935622  0.69945429  0.81858912     0.84600
C2772       C  0.61402876  0.64001246  0.78857390     0.90900
C2773       C  0.69168789  0.58470287  0.59351664    -0.11900
C2774       C  0.70612462  0.60669989  0.60366808     0.03600
C2775       C  0.70095738  0.60430971  0.62029313    -0.12500
C2776       C  0.68176234  0.58024591  0.62708894     0.18400
C2777       C  0.66771953  0.55815289  0.61707483    -0.09500
C2778       C  0.67283645  0.56047924  0.60041851    -0.02500
H2779       H  0.71209893  0.62130333  0.62801594     0.04900
C2780       C  0.67668312  0.57869222  0.64465608     0.20400
H2781       H  0.66179607  0.54336773  0.59278914     0.10100
C2782       C  0.65370580  0.57614714  0.65015711    -0.15800
C2783       C  0.64859541  0.57524087  0.66675067     0.03100
C2784       C  0.66678635  0.57704236  0.67808104    -0.11200
C2785       C  0.68956214  0.57918419  0.67253216    -0.01200
C2786       C  0.69469121  0.58018639  0.65596060    -0.06300
H2787       H  0.63966182  0.57475411  0.64148576     0.06100
H2788       H  0.70355871  0.58033315  0.68114508     0.09500
Br2789     Br  0.64183531  0.52443344  0.62571645    -0.06000
Br2790     Br  0.73441247  0.63999350  0.59585473    -0.03000
Br2791     Br  0.61574762  0.56965038  0.67319224    -0.00100
Br2792     Br  0.72623151  0.58307205  0.64931518    -0.04500
C2793       C  0.83971164  0.91257120  0.34636303    -0.11900
C2794       C  0.82371254  0.91378988  0.33453444     0.03600
C2795       C  0.83055819  0.91622788  0.31814848    -0.12500
C2796       C  0.85315562  0.91746068  0.31332431     0.18400
C2797       C  0.86911485  0.91621495  0.32505565    -0.09500
C2798       C  0.86222211  0.91357863  0.34143678    -0.02500
H2799       H  0.81809838  0.91692747  0.30910581     0.04900
C2800       C  0.85976893  0.92002001  0.29597255     0.20400
H2801       H  0.87463006  0.91257802  0.35038356     0.10100
C2802       C  0.87719267  0.94490902  0.28946679    -0.15800
C2803       C  0.88385683  0.94809050  0.27303739     0.03100
C2804       C  0.87276823  0.92599775  0.26283183    -0.11200
C2805       C  0.85567471  0.90104372  0.26949047    -0.01200
C2806       C  0.84905522  0.89795132  0.28592098    -0.06300
H2807       H  0.88581151  0.96192153  0.29726703     0.06100
H2808       H  0.84706313  0.88389829  0.26182738     0.09500
Br2809     Br  0.90034131  0.91791291  0.31913802    -0.06000
Br2810     Br  0.79137553  0.91027192  0.33982820    -0.03000
Br2811     Br  0.90956460  0.98281489  0.26564532    -0.00100
Br2812     Br  0.82540517  0.86331448  0.29417112    -0.04500
C2813       C  0.92496508  0.58498604  0.59400798    -0.11900
C2814       C  0.90343488  0.57611965  0.60453443     0.03600
C2815       C  0.90674113  0.57516237  0.62120697    -0.12500
C2816       C  0.93122767  0.58326650  0.62764677     0.18400
C2817       C  0.95278815  0.59243151  0.61727669    -0.09500
C2818       C  0.94955497  0.59329752  0.60058448    -0.02500
H2819       H  0.89019335  0.56840922  0.62925198     0.04900
C2820       C  0.93370299  0.58176285  0.64524948     0.20400
H2821       H  0.96627010  0.60016070  0.59269533     0.10100
C2822       C  0.92514716  0.55751389  0.65228397    -0.15800
C2823       C  0.92663736  0.55513615  0.66902006     0.03100
C2824       C  0.93675376  0.57742820  0.67896324    -0.11200
C2825       C  0.94543205  0.60172579  0.67180599    -0.01200
C2826       C  0.94379506  0.60398373  0.65507965    -0.06300
H2827       H  0.91746595  0.54039723  0.64467035     0.06100
H2828       H  0.95312947  0.61897941  0.67929036     0.09500
Br2829     Br  0.48678123  0.60349712  0.62538171    -0.06000
Br2830     Br  0.86960526  0.56706817  0.59729420    -0.03000
Br2831     Br  0.91625245  0.52135038  0.67720299    -0.00100
Br2832     Br  0.95484836  0.63753571  0.64619793    -0.04500
C2833       C  0.92312065  0.81238687  0.59396072    -0.11900
C2834       C  0.92113374  0.79504371  0.60603101     0.03600
C2835       C  0.92413068  0.80231070  0.62235318    -0.12500
C2836       C  0.92906530  0.82670057  0.62687623     0.18400
C2837       C  0.93091799  0.84396303  0.61480765    -0.09500
C2838       C  0.92773047  0.83663099  0.59850928    -0.02500
H2839       H  0.92253437  0.78886805  0.63157574     0.04900
C2840       C  0.93260632  0.83393953  0.64420705     0.20400
H2841       H  0.92914398  0.85003451  0.58932633     0.10100
C2842       C  0.95750916  0.85344153  0.64979087    -0.15800
C2843       C  0.96167440  0.86088839  0.66608771     0.03100
C2844       C  0.94065178  0.84844328  0.67719571    -0.11200
C2845       C  0.91565266  0.82908034  0.67152113    -0.01200
C2846       C  0.91153480  0.82172303  0.65518986    -0.06300
H2847       H  0.97376226  0.86314094  0.64134808     0.06100
H2848       H  0.89926093  0.81948320  0.67985866     0.09500
Br2849     Br  0.93724636  0.87749655  0.62000930    -0.06000
Br2850     Br  0.91267718  0.76065244  0.60098738    -0.03000
Br2851     Br  0.99598053  0.88959976  0.67201314    -0.00100
Br2852     Br  0.87672143  0.79550718  0.64831003    -0.04500
C2853       C  0.59947823  0.66969778  0.34593214    -0.11900
C2854       C  0.60063865  0.64891300  0.33972739     0.03600
C2855       C  0.59905695  0.64467786  0.32301246    -0.12500
C2856       C  0.59615242  0.66077799  0.31237753     0.18400
C2857       C  0.59443398  0.68115577  0.31853973    -0.09500
C2858       C  0.59607190  0.68547404  0.33523277    -0.02500
H2859       H  0.59982365  0.62860087  0.31827914     0.04900
C2860       C  0.59420383  0.65560437  0.29488788     0.20400
H2861       H  0.59506644  0.70145555  0.33985214     0.10100
C2862       C  0.56948449  0.63889418  0.28800961    -0.15800
C2863       C  0.56682413  0.63377350  0.27139163     0.03100
C2864       C  0.58924268  0.64585230  0.26139504    -0.11200
C2865       C  0.61403840  0.66212533  0.26841900    -0.01200
C2866       C  0.61664024  0.66703252  0.28506586    -0.06300
H2867       H  0.55221578  0.62961883  0.29565382     0.06100
H2868       H  0.63143448  0.67127289  0.26090008     0.09500
Br2869     Br  0.58994878  0.70350230  0.30454804    -0.06000
Br2870     Br  0.60233842  0.62456321  0.35350033    -0.03000
Br2871     Br  0.53242367  0.60849528  0.26339524    -0.00100
Br2872     Br  0.65106371  0.68940198  0.29392750    -0.04500
C2873       C  0.59815928  0.90905941  0.34388473    -0.11900
C2874       C  0.60249932  0.93123648  0.33551331     0.03600
C2875       C  0.60268260  0.93155837  0.31854794    -0.12500
C2876       C  0.59862366  0.91005542  0.30977944     0.18400
C2877       C  0.59407981  0.88786688  0.31810488    -0.09500
C2878       C  0.59370232  0.88742913  0.33503020    -0.02500
H2879       H  0.60585084  0.94856868  0.31215241     0.04900
C2880       C  0.59887332  0.91090258  0.29193154     0.20400
H2881       H  0.59041603  0.87028807  0.34130669     0.10100
C2882       C  0.62206954  0.91880587  0.28362822    -0.15800
C2883       C  0.62283054  0.91945657  0.26667150     0.03100
C2884       C  0.60005533  0.91214955  0.25779879    -0.11200
C2885       C  0.57675727  0.90386721  0.26620609    -0.01200
C2886       C  0.57608224  0.90333014  0.28314492    -0.06300
H2887       H  0.63954015  0.92423359  0.29037132     0.06100
H2888       H  0.55910727  0.89822860  0.25959037     0.09500
Br2889     Br  0.58838769  0.85782670  0.30680529    -0.06000
Br2890     Br  0.60665590  0.96083503  0.34656925    -0.03000
Br2891     Br  0.65496467  0.92875532  0.25636360    -0.00100
Br2892     Br  0.54369760  0.89210059  0.29385250    -0.04500
C2893       C  0.53294461  0.75912021  0.92720168    -0.11900
C2894       C  0.54550034  0.78066625  0.93786461     0.03600
C2895       C  0.53965326  0.77685184  0.95442982    -0.12500
C2896       C  0.52169553  0.75183445  0.96060601     0.18400
C2897       C  0.50958225  0.73030073  0.95008570    -0.09500
C2898       C  0.51529523  0.73404007  0.93353450    -0.02500
H2899       H  0.54930791  0.79343565  0.96257330     0.04900
C2900       C  0.51551616  0.74859364  0.97803922     0.20400
H2901       H  0.00561626  0.71726548  0.92553188     0.10100
C2902       C  0.99450694  0.74972662  0.98351231    -0.15800
C2903       C  0.98797253  0.74667561  0.99995920     0.03100
C2904       C  0.50290191  0.74278831  0.01124187    -0.11200
C2905       C  0.52361171  0.74110094  0.00565230    -0.01200
C2906       C  0.53000845  0.74402120  0.98916737    -0.06300
H2907       H  0.98293482  0.75265779  0.97489635     0.06100
H2908       H  0.53504939  0.73783126  0.01415802     0.09500
Br2909     Br  0.98515571  0.69551932  0.95785663    -0.06000
Br2910     Br  0.57218888  0.81529393  0.93087562    -0.03000
Br2911     Br  0.95721411  0.74579964  0.00602848    -0.00100
Br2912     Br  0.55847741  0.74147541  0.98228281    -0.04500
C2913       C  0.77347259  0.01438341  0.01192054    -0.11900
C2914       C  0.74963144  0.00234141  0.00326932     0.03600
C2915       C  0.74950723  0.99896848  0.98651206    -0.12500
C2916       C  0.77266505  0.00697064  0.97817395     0.18400
C2917       C  0.79636792  0.51859991  0.98673206    -0.09500
C2918       C  0.79662973  0.52220617  0.00346893    -0.02500
H2919       H  0.73113241  0.98963938  0.97994670     0.04900
C2920       C  0.77162635  0.00299118  0.96052388     0.20400
H2921       H  0.81512403  0.53150392  0.00986375     0.10100
C2922       C  0.77030218  0.52046563  0.95022621    -0.15800
C2923       C  0.76900415  0.51713943  0.93341187     0.03100
C2924       C  0.76887499  0.99588052  0.92671594    -0.11200
C2925       C  0.77041598  0.97854270  0.93709565    -0.01200
C2926       C  0.77160524  0.98185549  0.95389272    -0.06300
H2927       H  0.77050527  0.53688951  0.95531001     0.06100
H2928       H  0.77015097  0.96202567  0.93214260     0.09500
Br2929     Br  0.82879153  0.53010013  0.97598196    -0.06000
Br2930     Br  0.71630843  0.98809904  0.01358302    -0.03000
Br2931     Br  0.76918525  0.54314973  0.92026088    -0.00100
Br2932     Br  0.77247217  0.95673164  0.96735563    -0.04500
C2933       C  0.77012004  0.74780463  0.01396834    -0.11900
C2934       C  0.75919322  0.72561131  0.00384216     0.03600
C2935       C  0.75947465  0.72866669  0.98703299    -0.12500
C2936       C  0.77096758  0.75352030  0.98007796     0.18400
C2937       C  0.78260318  0.77568399  0.99006347    -0.09500
C2938       C  0.78202434  0.77270600  0.00686088    -0.02500
H2939       H  0.75089812  0.71158986  0.97930679     0.04900
C2940       C  0.77007665  0.75588625  0.96238562     0.20400
H2941       H  0.79084871  0.78998515  0.01440454     0.10100
C2942       C  0.75220653  0.76099293  0.95577587    -0.15800
C2943       C  0.75028387  0.76269337  0.93901610     0.03100
C2944       C  0.76644496  0.75924002  0.92867524    -0.11200
C2945       C  0.78472043  0.75470516  0.93530064    -0.01200
C2946       C  0.78651084  0.75282746  0.95207195    -0.06300
H2947       H  0.73969718  0.76362019  0.96370731     0.06100
H2948       H  0.79733332  0.75219392  0.92738017     0.09500
Br2949     Br  0.80013103  0.81036629  0.98124094    -0.06000
Br2950     Br  0.74569571  0.69097464  0.01186210    -0.03000
Br2951     Br  0.72627975  0.77101834  0.93088953    -0.00100
Br2952     Br  0.81175149  0.74636145  0.96039562    -0.04500
loop_ 
_geom_bond_atom_site_label_1 
_geom_bond_atom_site_label_2 
_geom_bond_distance 
_geom_bond_site_symmetry_2 
_ccdc_geom_bond_type 
N1            N2   1.321       .  A
N1            C5   1.347       .  A
N1           Cu9   2.073       .  S
N2            C3   1.340       .  A
N2           Cu8   2.053       .  S
C3            C4   1.378       .  A
C3            H6   1.081       .  S
C4            C5   1.385       .  A
C4          C294   1.464       .  S
C5            H7   1.083       .  S
Cu8          N11   2.053       .  S
Cu9          N19   2.074       .  S
Cu10         N12   2.061       .  S
Cu10         N18   2.063       .  S
N11          N12   1.320       .  A
N11          C15   1.341       .  A
N12          C13   1.345       .  A
C13          C14   1.383       .  A
C13          H16   1.082       .  S
C14          C15   1.379       .  A
C14         C431   1.461       .  S
C15          H17   1.082       .  S
N18          N19   1.323       .  A
N18          C22   1.341       .  A
N19          C20   1.344       .  A
C20          C21   1.385       .  A
C20          H23   1.084       .  S
C21          C22   1.381       .  A
C21         C719   1.477       .  S
C22          H24   1.085       .  S
N25          N26   1.320       .  A
N25          C29   1.345       .  A
N25         Cu33   2.069       .  S
N26          C27   1.340       .  A
N26         Cu32   2.044       .  S
C27          C28   1.377       .  A
C27          H30   1.081       .  S
C28          C29   1.383       .  A
C28         C370   1.460       .  S
C29          H31   1.083       .  S
Cu32         N35   2.044       .  S
Cu33         N43   2.070       .  S
Cu34         N36   2.068       .  S
Cu34         N42   2.069       .  S
N35          N36   1.321       .  A
N35          C39   1.339       .  A
N36          C37   1.345       .  A
C37          C38   1.383       .  A
C37          H40   1.082       .  S
C38          C39   1.376       .  A
C38         C556   1.458       .  S
C39          H41   1.082       .  S
N42          N43   1.324       .  A
N42          C46   1.343       .  A
N43          C44   1.344       .  A
C44          C45   1.379       .  A
C44          H47   1.084       .  S
C45          C46   1.380       .  A
C45         C730   1.466       .  S
C46          H48   1.082       .  S
O49         Cu57   2.002       .  S
O49          C59   1.277       .  A
O50         Cu57   2.003       .  S
O50          C60   1.277       .  A
O51         Cu57   2.002       .  S
O51          C61   1.277       .  A
O52         Cu57   2.003       .  S
O52          C62   1.276       .  A
O53         Cu58   2.008       .  S
O53          C62   1.278       .  A
O54         Cu58   2.011       .  S
O54          C61   1.278       .  A
O55         Cu58   1.996       .  S
O55          C60   1.276       .  A
O56         Cu58   1.996       .  S
O56          C59   1.276       .  A
Cu57        Cu58   2.378       .  S
C59         C248   1.460       .  S
C60         C324   1.461       .  S
C61         C448   1.467       .  S
C62         C510   1.465       .  S
O63         Cu71   2.005       .  S
O63          C73   1.277       .  A
O64         Cu71   2.006       .  S
O64          C74   1.277       .  A
O65         Cu71   1.999       .  S
O65          C75   1.277       .  A
O66         Cu71   2.004       .  S
O66          C76   1.276       .  A
O67         Cu72   2.010       .  S
O67          C76   1.278       .  A
O68         Cu72   2.011       .  S
O68          C75   1.277       .  A
O69         Cu72   2.002       .  S
O69          C74   1.277       .  A
O70         Cu72   2.007       .  S
O70          C73   1.277       .  A
Cu71        Cu72   2.377       .  S
C73         C162   1.466       .  S
C74        C1272   1.465       .  S
C75         C114   1.465       .  S
C76         C348   1.467       .  S
N77          N78   1.321       .  A
N77          C81   1.345       .  A
N77         Cu85   2.069       .  S
N78          C79   1.342       .  A
N78         Cu84   2.060       .  S
C79          C80   1.380       .  A
C79          H82   1.082       .  S
C80          C81   1.383       .  A
C80         C295   1.463       .  S
C81          H83   1.082       .  S
Cu84         N87   2.060       .  S
Cu85        N833   2.070       .  S
Cu86         N88   2.069       .  S
Cu86        N832   2.070       .  S
N87          N88   1.322       .  A
N87          C91   1.342       .  A
N88          C89   1.344       .  A
C89          C90   1.382       .  A
C89          H92   1.082       .  S
C90          C91   1.380       .  A
C90         C183   1.463       .  S
C91          H93   1.082       .  S
N94          N95   1.322       .  A
N94          C98   1.344       .  A
N94        Cu824   2.070       .  S
N95          C96   1.343       .  A
N95        Cu823   2.070       .  S
C96          C97   1.385       .  A
C96          H99   1.081       .  S
C97          C98   1.385       .  A
C97         C699   1.480       .  S
C98         H100   1.082       .  S
N101        N102   1.321       .  A
N101        C105   1.345       .  A
N101       Cu109   2.071       .  S
N102        C103   1.343       .  A
N102       Cu108   2.063       .  S
C103        C104   1.381       .  A
C103        H106   1.081       .  S
C104        C105   1.383       .  A
C104        C371   1.465       .  S
C105        H107   1.082       .  S
Cu108       N111   2.063       .  S
Cu109       N119   2.071       .  S
Cu110       N112   2.072       .  S
Cu110       N118   2.072       .  S
N111        N112   1.322       .  A
N111        C115   1.342       .  A
N112        C113   1.346       .  A
C113        C114   1.383       .  A
C113        H116   1.082       .  S
C114        C115   1.380       .  A
C115        H117   1.082       .  S
N118        N119   1.323       .  A
N118        C122   1.344       .  A
N119        C120   1.344       .  A
C120        C121   1.383       .  A
C120        H123   1.082       .  S
C121        C122   1.384       .  A
C121        C710   1.476       .  S
C122        H124   1.082       .  S
N125        N126   1.322       .  A
N125        C129   1.346       .  A
N125      Cu1609   2.075       .  S
N126        C127   1.342       .  A
N126       Cu132   2.060       .  S
C127        C128   1.379       .  A
C127        H130   1.082       .  S
C128        C129   1.384       .  A
C128        C434   1.465       .  S
C129        H131   1.081       .  S
Cu132       N135   2.060       .  S
Cu133       N143   2.076       .  S
Cu133      N1601   2.075       .  S
Cu134       N142   2.072       .  S
Cu134      N1612   2.072       .  S
N135        N136   1.321       .  A
N135        C139   1.343       .  A
N136        C137   1.344       .  A
N136      Cu1610   2.072       .  S
C137        C138   1.383       .  A
C137        H140   1.083       .  S
C138        C139   1.381       .  A
C138        C185   1.465       .  S
C139        H141   1.082       .  S
N142        N143   1.323       .  A
N142        C146   1.345       .  A
N143        C144   1.344       .  A
C144        C145   1.384       .  A
C144        H147   1.082       .  S
C145        C146   1.382       .  A
C145        C690   1.476   1_655  S
C146        H148   1.082       .  S
N149        N150   1.322       .  A
N149        C153   1.345       .  A
N149       Cu157   2.067       .  S
N150        C151   1.343       .  A
N150       Cu156   2.068       .  S
C151        C152   1.381       .  A
C151        H154   1.082       .  S
C152        C153   1.382       .  A
C152        C557   1.465       .  S
C153        H155   1.082       .  S
Cu156       N159   2.068       .  S
Cu157       N167   2.068       .  S
Cu158       N160   2.071       .  S
Cu158       N166   2.071       .  S
N159        N160   1.322       .  A
N159        C163   1.344       .  A
N160        C161   1.345       .  A
C161        C162   1.383       .  A
C161        H164   1.082       .  S
C162        C163   1.382       .  A
C163        H165   1.082       .  S
N166        N167   1.322       .  A
N166        C170   1.344       .  A
N167        C168   1.343       .  A
C168        C169   1.383       .  A
C168        H171   1.082       .  S
C169        C170   1.384       .  A
C169        C679   1.477       .  S
C170        H172   1.081       .  S
O173       Cu181   2.002       .  S
O173        C183   1.277       .  A
O174       Cu181   2.004       .  S
O174        C184   1.277       .  A
O175       Cu181   2.006       .  S
O175        C185   1.278       .  A
O176       Cu181   2.005       .  S
O176        C186   1.277       .  A
O177       Cu182   1.996       .  S
O177        C186   1.276       .  A
O178       Cu182   2.002       .  S
O178        C185   1.276       .  A
O179       Cu182   2.003       .  S
O179        C184   1.277       .  A
O180       Cu182   2.002       .  S
O180        C183   1.277       .  A
Cu181      Cu182   2.378       .  S
C184       C1748   1.464       .  S
C186       C1210   1.462       .  S
N187        N188   1.321       .  A
N187        C929   1.345       .  A
N187       Cu195   2.072       .  S
N188        C189   1.341       .  A
N188       Cu194   2.048       .  S
C189        C928   1.378       .  A
C189        H192   1.081       .  S
C190        C191   1.383       .  A
C190        C927   1.378       .  A
C190       C1232   1.461       .  S
C191        N925   1.345       .  A
C191        H193   1.083       .  S
Cu194       N197   2.047       .  S
Cu195       N205   2.073       .  S
Cu196       N198   2.070       .  S
Cu196       N204   2.071       .  S
N197        N198   1.321       .  A
N197        C201   1.340       .  A
N198        C199   1.345       .  A
C199        C200   1.383       .  A
C199       H1678   1.082       .  S
C200        C201   1.377       .  A
C200        C310   1.460       .  S
C201        H203   1.081       .  S
H202       C1675   1.082       .  S
N204        N205   1.323       .  A
N204        C208   1.343       .  A
N205        C206   1.344       .  A
C206        C207   1.383       .  A
C206        H209   1.083       .  S
C207        C208   1.382       .  A
C207        C659   1.474       .  S
C208        H210   1.085       .  S
N211        N212   1.321       .  A
N211       C1691   1.344       .  A
N211       Cu219   2.069       .  S
N212        C213   1.340       .  A
N212       Cu218   2.046       .  S
C213       C1690   1.377       .  A
C213        H216   1.081       .  S
C214        C215   1.383       .  A
C214       C1689   1.377       .  A
C214        C432   1.460       .  S
C215       N1687   1.344       .  A
C215        H217   1.083       .  S
Cu218       N221   2.047       .  S
Cu219       N229   2.070       .  S
Cu220       N222   2.079       .  S
Cu220       N228   2.080       .  S
N221        N222   1.321       .  A
N221        C225   1.341       .  A
N222        C961   1.346       .  A
C223        N960   1.346   1_545  A
C223        C224   1.385       .  A
C223        H226   1.083       .  S
C224        C963   1.377   1_545  A
C224        C293   1.464       .  S
C225        C962   1.378       .  A
C225        H227   1.081       .  S
N228        N229   1.323       .  A
N228        C232   1.345       .  A
N229        C230   1.344       .  A
C230        C231   1.383       .  A
C230        H233   1.085       .  S
C231        C232   1.385       .  A
C231        C670   1.478       .  S
C232        H234   1.083       .  S
N235        N236   1.321       .  A
N235        C239   1.344       .  A
N235       Cu243   2.064       .  S
N236        C237   1.341       .  A
N236       Cu242   2.052       .  S
C237        C238   1.378       .  A
C237        H240   1.082       .  S
C238        C239   1.382       .  A
C238        C307   1.459       .  S
C239        H241   1.082       .  S
Cu242       N245   2.052       .  S
Cu243       N253   2.064       .  S
Cu244       N246   2.067       .  S
Cu244       N252   2.067       .  S
N245        N246   1.321       .  A
N245        C249   1.342       .  A
N246        C247   1.344       .  A
C247        C248   1.382       .  A
C247        H250   1.082       .  S
C248        C249   1.379       .  A
C249        H251   1.082       .  S
N252        N253   1.322       .  A
N252        C256   1.343       .  A
N253        C254   1.343       .  A
C254        C255   1.382       .  A
C254        H257   1.082       .  S
C255        C256   1.382       .  A
C255        C639   1.472       .  S
C256        H258   1.082       .  S
N259        N260   1.321       .  A
N259        C263   1.344       .  A
N259       Cu267   2.068       .  S
N260        C261   1.343       .  A
N260       Cu266   2.061       .  S
C261        C262   1.380       .  A
C261        H264   1.082       .  S
C262        C263   1.383       .  A
C262        C296   1.463       .  S
C263        H265   1.082       .  S
Cu266       N269   2.061       .  S
Cu267       N277   2.068       .  S
Cu268       N270   2.069       .  S
Cu268       N276   2.069       .  S
N269        N270   1.321       .  A
N269        C273   1.342       .  A
N270        C271   1.345       .  A
C271        C272   1.383       .  A
C271        H274   1.082       .  S
C272        C273   1.380       .  A
C272       C1660   1.464   1_455  S
C273        H275   1.082       .  S
N276        N277   1.323       .  A
N276        C280   1.344       .  A
N277        C278   1.343       .  A
C278        C279   1.381       .  A
C278        H281   1.082       .  S
C279        C280   1.383       .  A
C279        C650   1.473       .  S
C280        H282   1.081       .  S
O283       Cu291   2.008       .  S
O283        C293   1.278       .  A
O284       Cu291   2.005       .  S
O284        C294   1.276       .  A
O285       Cu291   2.003       .  S
O285        C295   1.276       .  A
O286       Cu291   2.005       .  S
O286        C296   1.277       .  A
O287       Cu292   2.002       .  S
O287        C296   1.276       .  A
O288       Cu292   2.004       .  S
O288        C295   1.277       .  A
O289       Cu292   2.002       .  S
O289        C294   1.278       .  A
O290       Cu292   1.998       .  S
O290        C293   1.275       .  A
Cu291      Cu292   2.378       .  S
O297       Cu305   1.998       .  S
O297        C307   1.277       .  A
O298       Cu305   1.997       .  S
O298       C1784   1.276   1_455  A
O299       Cu305   1.999       .  S
O299       C1785   1.276   1_455  A
O300       Cu305   2.002       .  S
O300        C310   1.278       .  A
O301      Cu1782   1.994   1_455  S
O301        C310   1.275       .  A
O302       Cu306   1.996       .  S
O302        C309   1.277       .  A
O303       Cu306   2.004       .  S
O303        C308   1.278       .  A
O304      Cu1782   1.997   1_455  S
O304        C307   1.276       .  A
Cu305     Cu1782   2.380   1_455  S
Cu306      O1777   1.994       .  S
Cu306      O1780   1.997       .  S
Cu306     Cu1781   2.380       .  S
C308        C314   1.462       .  S
C308       O1774   1.276       .  A
C309       C1862   1.460       .  S
C309       O1775   1.276       .  A
N311        N312   1.322       .  A
N311        C315   1.345       .  A
N311       Cu319   2.073       .  S
N312        C313   1.342       .  A
N312       Cu318   2.057       .  S
C313        C314   1.379       .  A
C313        H316   1.082       .  S
C314        C315   1.383       .  A
C315       H1793   1.082       .  S
H317       C1791   1.082       .  S
Cu318       N321   2.057       .  S
Cu319       N329   2.074       .  S
Cu320       N322   2.066       .  S
Cu320       N328   2.067       .  S
N321        N322   1.321       .  A
N321        C325   1.342       .  A
N322        C323   1.344       .  A
C323        C324   1.382       .  A
C323        H326   1.083       .  S
C324        C325   1.380       .  A
C325        H327   1.081       .  S
N328        N329   1.322       .  A
N328        C332   1.344       .  A
N329        C330   1.345       .  A
C330        C331   1.383       .  A
C330        H333   1.082       .  S
C331        C332   1.381       .  A
C331        C619   1.473       .  S
C332        H334   1.082       .  S
N335        N336   1.322       .  A
N335        C339   1.347       .  A
N335       Cu343   2.082       .  S
N336        C337   1.342       .  A
N336       Cu342   2.058       .  S
C337        C338   1.379       .  A
C337        H340   1.082       .  S
C338        C339   1.385       .  A
C338        C372   1.467       .  S
C339        H341   1.082       .  S
Cu342       N345   2.058       .  S
Cu343       N353   2.082       .  S
Cu344       N346   2.076       .  S
Cu344       N352   2.077       .  S
N345        N346   1.321       .  A
N345        C349   1.343       .  A
N346       C1823   1.346       .  A
C347       N1822   1.346       .  A
C347        C348   1.385       .  A
C347        H350   1.083       .  S
C348       C1825   1.380       .  A
C349       C1824   1.380       .  A
C349        H351   1.082       .  S
N352        N353   1.323       .  A
N352        C356   1.344       .  A
N353        C354   1.346       .  A
C354        C355   1.385       .  A
C354        H357   1.082       .  S
C355        C356   1.384       .  A
C355        C630   1.480       .  S
C356        H358   1.081       .  S
O359       Cu367   1.998       .  S
O359        C369   1.276       .  A
O360       Cu367   2.002       .  S
O360        C370   1.278       .  A
O361       Cu367   2.004       .  S
O361        C371   1.277       .  A
O362       Cu367   2.003       .  S
O362        C372   1.276       .  A
O363       Cu368   2.011       .  S
O363        C372   1.279       .  A
O364       Cu368   2.007       .  S
O364        C371   1.277       .  A
O365       Cu368   1.995       .  S
O365        C370   1.275       .  A
O366       Cu368   1.994       .  S
O366        C369   1.276       .  A
Cu367      Cu368   2.379       .  S
C369        C400   1.458       .  S
N373        N374   1.321       .  A
N373        C377   1.345       .  A
N373       Cu381   2.066       .  S
N374        C375   1.340       .  A
N374       Cu380   2.049       .  S
C375        C376   1.378       .  A
C375        H378   1.081       .  S
C376        C377   1.383       .  A
C376        C493   1.460       .  S
C377       H1117   1.082       .  S
H379       C1115   1.083       .  S
Cu380       N383   2.049       .  S
Cu381       N391   2.067       .  S
Cu382       N384   2.066       .  S
Cu382       N390   2.067       .  S
N383        N384   1.321       .  A
N383        C387   1.340       .  A
N384       C1861   1.345       .  A
C385       N1860   1.345       .  A
C385        C386   1.383       .  A
C385        H388   1.083       .  S
C386       C1863   1.378       .  A
C386       C1785   1.460       .  S
C387       C1862   1.378       .  A
C387        H389   1.081       .  S
N390        N391   1.322       .  A
N390        C394   1.343       .  A
N391        C392   1.343       .  A
C392        C393   1.383       .  A
C392        H395   1.079       .  S
C393        C394   1.382       .  A
C393        C599   1.475       .  S
C394        H396   1.084       .  S
N397        N398   1.320       .  A
N397       C1139   1.343   1_545  A
N397       Cu405   2.060       .  S
N398        C399   1.340       .  A
N398       Cu404   2.048       .  S
C399       C1138   1.379   1_545  A
C399        H402   1.081       .  S
C400        C401   1.381       .  A
C400       C1137   1.379       .  A
C401       N1135   1.343       .  A
C401        H403   1.083       .  S
Cu404       N407   2.048       .  S
Cu405       N415   2.061       .  S
Cu406       N414   2.068       .  S
Cu406      N1884   2.067       .  S
N407       N1884   1.321       .  A
N407       C1887   1.339       .  A
N408       N1883   1.321       .  A
N408        C409   1.345   1_655  A
N408      Cu1882   2.067       .  S
C409        C410   1.382       .  A
C409        H412   1.083       .  S
C410        C411   1.377       .  A
C410        C555   1.459       .  S
C411       N1883   1.339   1_455  A
C411        H413   1.082       .  S
N414        N415   1.322       .  A
N414        C418   1.342       .  A
N415        C416   1.342       .  A
C416        C417   1.382       .  A
C416        H419   1.080       .  S
C417        C418   1.382       .  A
C417        C610   1.473       .  S
C418        H420   1.084       .  S
O421       Cu429   1.998       .  S
O421        C431   1.277       .  A
O422       Cu429   1.995       .  S
O422        C432   1.275       .  A
O423       Cu429   2.003       .  S
O423        C433   1.276       .  A
O424       Cu429   2.005       .  S
O424        C434   1.278       .  A
O425       Cu430   2.004       .  S
O425        C434   1.276       .  A
O426       Cu430   2.006       .  S
O426        C433   1.277       .  A
O427       Cu430   2.001       .  S
O427        C432   1.278       .  A
O428       Cu430   2.000       .  S
O428        C431   1.276       .  A
Cu429      Cu430   2.379       .  S
C433        C462   1.464       .  S
N435        N436   1.322       .  A
N435        C439   1.345       .  A
N435       Cu443   2.074       .  S
N436        C437   1.344       .  A
N436       Cu442   2.067       .  S
C437        C438   1.381       .  A
C437        H440   1.081       .  S
C438        C439   1.383       .  A
C438        C495   1.466       .  S
C439        H441   1.082       .  S
Cu442       N445   2.067       .  S
Cu443       N453   2.075       .  S
Cu444       N446   2.072       .  S
Cu444       N452   2.072       .  S
N445        N446   1.322       .  A
N445        C449   1.344       .  A
N446        C447   1.345       .  A
C447        C448   1.383       .  A
C447        H450   1.082       .  S
C448        C449   1.382       .  A
C449        H451   1.082       .  S
N452        N453   1.322       .  A
N452        C456   1.344       .  A
N453        C454   1.345       .  A
C454        C455   1.384       .  A
C454        H457   1.082       .  S
C455        C456   1.382       .  A
C455        C579   1.476       .  S
C456        H458   1.082       .  S
N459        N460   1.322       .  A
N459        C463   1.345       .  A
N459       Cu467   2.073       .  S
N460        C461   1.343       .  A
N460       Cu466   2.062       .  S
C461        C462   1.380       .  A
C461        H464   1.081       .  S
C462        C463   1.383       .  A
C463        H465   1.083       .  S
Cu466       N469   2.062       .  S
Cu467       N477   2.074       .  S
Cu468       N470   2.060       .  S
Cu468       N476   2.061       .  S
N469        N470   1.321       .  A
N469        C473   1.342       .  A
N470        C471   1.344       .  A
C471        C472   1.381       .  A
C471        H474   1.082       .  S
C472        C473   1.381       .  A
C472        C924   1.462       .  S
C473        H475   1.082       .  S
N476        N477   1.322       .  A
N476        C480   1.342       .  A
N477        C478   1.345       .  A
C478        C479   1.385       .  A
C478        H481   1.081       .  S
C479        C480   1.382       .  A
C479        C590   1.476       .  S
C480        H482   1.081       .  S
O483      Cu1229   1.999   1_545  S
O483        C493   1.276       .  A
O484       Cu491   2.004       .  S
O484        C494   1.278       .  A
O485       Cu491   2.008       .  S
O485        C495   1.278       .  A
O486       Cu491   2.002       .  S
O486       C1234   1.276       .  A
O487       Cu492   2.006       .  S
O487        C496   1.278       .  A
O488       Cu492   2.004   1_565  S
O488       C1233   1.277       .  A
O489       Cu492   1.997   1_565  S
O489       C1232   1.275       .  A
O490       Cu492   1.997       .  S
O490        C493   1.277       .  A
Cu491      O1221   1.999       .  S
Cu491     Cu1230   2.379       .  S
Cu492     Cu1229   2.379   1_545  S
C494        C928   1.461       .  S
C494       O1227   1.275       .  A
C495       O1226   1.277       .  A
C496        C500   1.464       .  S
C496       O1224   1.276       .  A
N497        N498   1.322       .  A
N497        C501   1.345       .  A
N497       Cu505   2.073       .  S
N498        C499   1.342       .  A
N498       Cu504   2.060       .  S
C499        C500   1.379       .  A
C499        H502   1.082       .  S
C500        C501   1.383       .  A
C501        H503   1.082       .  S
Cu504       N507   2.060       .  S
Cu505       N515   2.073       .  S
Cu506       N508   2.071       .  S
Cu506       N514   2.071       .  S
N507        N508   1.321       .  A
N507        C511   1.343       .  A
N508        C509   1.345       .  A
C509        C510   1.384       .  A
C509        H512   1.082       .  S
C510        C511   1.380       .  A
C511        H513   1.082       .  S
N514        N515   1.322       .  A
N514        C518   1.343       .  A
N515        C516   1.346       .  A
C516        C517   1.384       .  A
C516        H519   1.081       .  S
C517        C518   1.383       .  A
C517        C559   1.476       .  S
C518        H520   1.082       .  S
N521        N522   1.322       .  A
N521        C525   1.345       .  A
N521       Cu529   2.077       .  S
N522        C523   1.343       .  A
N522       Cu528   2.060       .  S
C523        C524   1.379       .  A
C523        H526   1.083       .  S
C524        C525   1.384       .  A
C524        C558   1.465       .  S
C525        H527   1.082       .  S
Cu528       N531   2.060       .  S
Cu529       N539   2.078       .  S
Cu530       N532   2.066       .  S
Cu530       N538   2.066       .  S
N531        N532   1.320       .  A
N531        C535   1.343       .  A
N532        C533   1.345       .  A
C533        C534   1.383   1_545  A
C533        H536   1.082   1_545  S
C534        C535   1.381   1_565  A
C534        C812   1.465       .  S
C535        H537   1.082       .  S
N538        N539   1.323       .  A
N538        C542   1.342       .  A
N539        C540   1.346       .  A
C540        C541   1.384       .  A
C540        H543   1.081       .  S
C541        C542   1.379       .  A
C541        C570   1.472       .  S
C542        H544   1.083       .  S
O545       Cu553   1.992       .  S
O545        C555   1.276       .  A
O546       Cu553   1.992       .  S
O546        C556   1.274       .  A
O547       Cu553   2.009       .  S
O547        C557   1.278       .  A
O548       Cu553   2.014       .  S
O548        C558   1.279       .  A
O549       Cu554   1.996       .  S
O549        C558   1.275       .  A
O550       Cu554   2.001       .  S
O550        C557   1.277       .  A
O551       Cu554   2.001       .  S
O551        C556   1.278       .  A
O552       Cu554   2.000       .  S
O552        C555   1.276       .  A
Cu553      Cu554   2.379       .  S
C559        C560   1.412       .  A
C559        C564   1.404       .  A
C560        C561   1.397       .  A
C560       Br576   1.920       .  S
C561        C562   1.400       .  A
C561        H565   1.085       .  S
C562        C563   1.407       .  A
C562        C566   1.474       .  S
C563        C564   1.399       .  A
C563       Br575   1.919       .  S
C564        H567   1.084       .  S
C566        C568   1.402       .  A
C566        C572   1.407       .  A
C568        C569   1.399       .  A
C568        H573   1.084       .  S
C569        C570   1.410       .  A
C569       Br577   1.919       .  S
C570        C571   1.403       .  A
C571        C572   1.397       .  A
C571        H574   1.084       .  S
C572       Br578   1.919       .  S
C579        C580   1.412       .  A
C579        C584   1.404       .  A
C580        C581   1.399       .  A
C580       Br596   1.919       .  S
C581        C582   1.400       .  A
C581        H585   1.083       .  S
C582        C583   1.405       .  A
C582        C586   1.472       .  S
C583        C584   1.398       .  A
C583       Br595   1.918       .  S
C584        H587   1.083       .  S
C586        C588   1.400       .  A
C586        C592   1.406       .  A
C588        C589   1.398       .  A
C588        H593   1.085       .  S
C589        C590   1.413       .  A
C589       Br597   1.920       .  S
C590        C591   1.404       .  A
C591        C592   1.397       .  A
C591        H594   1.084       .  S
C592       Br598   1.918       .  S
C599        C600   1.413       .  A
C599        C604   1.405       .  A
C600        C601   1.396       .  A
C600       Br616   1.920       .  S
C601        C602   1.398       .  A
C601        H605   1.085       .  S
C602        C603   1.405       .  A
C602        C606   1.468       .  S
C603        C604   1.396       .  A
C603      Br2091   1.919       .  S
C604        H607   1.083       .  S
C606        C608   1.399       .  A
C606        C612   1.405       .  A
C608        C609   1.396       .  A
C608        H613   1.084       .  S
C609        C610   1.413       .  A
C609       Br617   1.920       .  S
C610        C611   1.404       .  A
C611        C612   1.395       .  A
C611        H614   1.084       .  S
C612       Br618   1.918       .  S
Br615      C2079   1.919       .  S
C619        C620   1.409       .  A
C619        C624   1.402       .  A
C620        C621   1.399       .  A
C620       Br636   1.919       .  S
C621        C622   1.403       .  A
C621        H625   1.083       .  S
C622        C623   1.408       .  A
C622        C626   1.478       .  S
C623        C624   1.398       .  A
C623       Br635   1.919       .  S
C624        H627   1.083       .  S
C626        C628   1.401       .  A
C626        C632   1.408       .  A
C628        C629   1.398       .  A
C628        H633   1.085       .  S
C629        C630   1.413       .  A
C629       Br637   1.919       .  S
C630        C631   1.405       .  A
C631        C632   1.400       .  A
C631        H634   1.085       .  S
C632       Br638   1.919       .  S
C639        C640   1.410       .  A
C639        C644   1.404       .  A
C640        C641   1.397       .  A
C640       Br656   1.919       .  S
C641        C642   1.400       .  A
C641        H645   1.085       .  S
C642        C643   1.405       .  A
C642        C646   1.469       .  S
C643        C644   1.396       .  A
C643       Br655   1.919       .  S
C644        H647   1.084       .  S
C646        C648   1.399       .  A
C646        C652   1.405       .  A
C648        C649   1.396       .  A
C648        H653   1.085       .  S
C649        C650   1.412       .  A
C649       Br657   1.920       .  S
C650        C651   1.404       .  A
C651        C652   1.397       .  A
C651        H654   1.084       .  S
C652       Br658   1.918       .  S
C659        C660   1.411       .  A
C659        C664   1.404       .  A
C660        C661   1.400       .  A
C660       Br676   1.919       .  S
C661        C662   1.402       .  A
C661        H665   1.084       .  S
C662        C663   1.405       .  A
C662        C666   1.473       .  S
C663        C664   1.396       .  A
C663       Br675   1.918       .  S
C664        H667   1.084       .  S
C666        C668   1.401       .  A
C666        C672   1.405       .  A
C668        C669   1.399       .  A
C668        H673   1.083       .  S
C669        C670   1.411       .  A
C669       Br677   1.919       .  S
C670        C671   1.406       .  A
C671        C672   1.398       .  A
C671        H674   1.083       .  S
C672       Br678   1.919       .  S
C679        C680   1.413       .  A
C679        C684   1.404       .  A
C680        C681   1.399       .  A
C680       Br696   1.920       .  S
C681        C682   1.400       .  A
C681        H685   1.085       .  S
C682        C683   1.405       .  A
C682        C686   1.472       .  S
C683        C684   1.396       .  A
C683      Br2171   1.918   1_455  S
C684       H2163   1.084       .  S
C686        C692   1.406       .  A
C686       C2164   1.400   1_455  A
H687       C2160   1.084       .  S
C688        C689   1.398       .  A
C688       C2162   1.400       .  A
C688        H693   1.084       .  S
C689       C2166   1.411   1_556  A
C689       Br697   1.919   1_556  S
C690        C691   1.405       .  A
C690       C2165   1.411   1_454  A
C691        C692   1.399   1_554  A
C691        H694   1.083       .  S
C692       Br698   1.918       .  S
Br695      C2159   1.918       .  S
C699        C700   1.414       .  A
C699       C1442   1.406       .  A
C700        C701   1.398   1_554  A
C700       Br716   1.920       .  S
C701        C702   1.399       .  A
C701        H705   1.086       .  S
C702       C1441   1.405       .  A
C702        C706   1.472       .  S
C703        C704   1.398   1_556  A
C703       C1440   1.405       .  A
C703       Br715   1.919       .  S
C704       C1437   1.406       .  A
C704        H707   1.084       .  S
C706        C712   1.406       .  A
C706       C1446   1.401       .  A
C708        C709   1.398       .  A
C708       C1444   1.401       .  A
C708        H713   1.085       .  S
C709       C1448   1.411   1_545  A
C709       Br717   1.919       .  S
C710        C711   1.405       .  A
C710       C1447   1.411       .  A
C711        C712   1.397       .  A
C711        H714   1.084       .  S
C712       Br718   1.919       .  S
C719        C720   1.414       .  A
C719        C724   1.405       .  A
C720        C721   1.398   1_554  A
C720       Br736   1.920       .  S
C721        C722   1.400       .  A
C721        H725   1.084       .  S
C722        C723   1.404       .  A
C722        C726   1.470       .  S
C723        C724   1.395   1_556  A
C723       Br735   1.918       .  S
C724        H727   1.084       .  S
C726        C728   1.401       .  A
C726        C732   1.407       .  A
C728        C729   1.396       .  A
C728        H733   1.084       .  S
C729        C730   1.408       .  A
C729       Br737   1.919       .  S
C730        C731   1.401       .  A
C731        C732   1.397       .  A
C731        H734   1.086       .  S
C732       Br738   1.918       .  S
N739        N740   1.321       .  A
N739        C743   1.347       .  A
N739       Cu747   2.073       .  S
N740        C741   1.340       .  A
N740       Cu746   2.053       .  S
C741        C742   1.378       .  A
C741        H744   1.082       .  S
C742        C743   1.385       .  A
C742       C1032   1.464       .  S
C743        H745   1.082       .  S
Cu746       N749   2.053       .  S
Cu747       N757   2.074       .  S
Cu748       N750   2.061       .  S
Cu748       N756   2.063       .  S
N749        N750   1.320       .  A
N749        C753   1.341       .  A
N750        C751   1.345       .  A
C751        C752   1.383       .  A
C751        H754   1.082       .  S
C752        C753   1.379       .  A
C752       C1169   1.461       .  S
C753        H755   1.082       .  S
N756        N757   1.323       .  A
N756        C760   1.341       .  A
N757        C758   1.344       .  A
C758        C759   1.385       .  A
C758        H761   1.084       .  S
C759        C760   1.381       .  A
C759       C1457   1.477       .  S
C760        H762   1.085       .  S
N763        N764   1.320       .  A
N763        C767   1.345       .  A
N763       Cu771   2.069       .  S
N764        C765   1.340       .  A
N764       Cu770   2.044       .  S
C765        C766   1.377       .  A
C765        H768   1.081       .  S
C766        C767   1.383       .  A
C766       C1108   1.460       .  S
C767        H769   1.083       .  S
Cu770       N773   2.044       .  S
Cu771       N781   2.070       .  S
Cu772       N774   2.068       .  S
Cu772       N780   2.069       .  S
N773        N774   1.321       .  A
N773        C777   1.339       .  A
N774        C775   1.345       .  A
C775        C776   1.383       .  A
C775        H778   1.082       .  S
C776        C777   1.376       .  A
C776       C1294   1.458       .  S
C777        H779   1.082       .  S
N780        N781   1.324       .  A
N780        C784   1.343       .  A
N781        C782   1.344       .  A
C782        C783   1.379       .  A
C782        H785   1.085       .  S
C783        C784   1.380       .  A
C783       C1468   1.466       .  S
C784        H786   1.083       .  S
O787       Cu795   2.002       .  S
O787        C797   1.277       .  A
O788       Cu795   2.003       .  S
O788        C798   1.277       .  A
O789       Cu795   2.002       .  S
O789        C799   1.277       .  A
O790       Cu795   2.003       .  S
O790        C800   1.276       .  A
O791       Cu796   2.008       .  S
O791        C800   1.278       .  A
O792       Cu796   2.011       .  S
O792        C799   1.278       .  A
O793       Cu796   1.996       .  S
O793        C798   1.276       .  A
O794       Cu796   1.996       .  S
O794        C797   1.276       .  A
Cu795      Cu796   2.378       .  S
C797        C986   1.460       .  S
C798       C1062   1.461       .  S
C799       C1186   1.467       .  S
C800       C1248   1.465       .  S
O801       Cu809   2.005       .  S
O801        C811   1.277       .  A
O802       Cu809   2.006       .  S
O802        C812   1.277       .  A
O803       Cu809   1.999       .  S
O803        C813   1.277       .  A
O804       Cu809   2.004       .  S
O804        C814   1.276       .  A
O805       Cu810   2.010       .  S
O805        C814   1.278       .  A
O806       Cu810   2.011       .  S
O806        C813   1.277       .  A
O807       Cu810   2.002       .  S
O807        C812   1.277       .  A
O808       Cu810   2.007       .  S
O808        C811   1.277       .  A
Cu809      Cu810   2.377       .  S
C811        C900   1.466       .  S
C813        C852   1.465       .  S
C814       C1086   1.467       .  S
N815        N816   1.321       .  A
N815        C819   1.345       .  A
N815       Cu823   2.069       .  S
N816        C817   1.342       .  A
N816       Cu822   2.060       .  S
C817        C818   1.380       .  A
C817        H820   1.082       .  S
C818        C819   1.383       .  A
C818       C1033   1.463       .  S
C819        H821   1.082       .  S
Cu822       N825   2.060       .  S
Cu824       N826   2.069       .  S
N825        N826   1.322       .  A
N825        C829   1.342       .  A
N826        C827   1.344       .  A
C827        C828   1.382       .  A
C827        H830   1.082       .  S
C828        C829   1.380       .  A
C828        C921   1.463       .  S
C829        H831   1.081       .  S
N832        N833   1.322       .  A
N832        C836   1.344       .  A
N833        C834   1.343       .  A
C834        C835   1.385       .  A
C834        H837   1.081       .  S
C835        C836   1.385       .  A
C835       C1437   1.480       .  S
C836        H838   1.082       .  S
N839        N840   1.321       .  A
N839        C843   1.345       .  A
N839       Cu847   2.071       .  S
N840        C841   1.343       .  A
N840       Cu846   2.063       .  S
C841        C842   1.381       .  A
C841        H844   1.081       .  S
C842        C843   1.383       .  A
C842       C1109   1.465       .  S
C843        H845   1.083       .  S
Cu846       N849   2.063       .  S
Cu847       N857   2.071       .  S
Cu848       N850   2.072       .  S
Cu848       N856   2.072       .  S
N849        N850   1.322       .  A
N849        C853   1.342       .  A
N850        C851   1.346       .  A
C851        C852   1.383       .  A
C851        H854   1.082       .  S
C852        C853   1.380       .  A
C853        H855   1.082       .  S
N856        N857   1.323       .  A
N856        C860   1.344       .  A
N857        C858   1.344       .  A
C858        C859   1.383       .  A
C858        H861   1.082       .  S
C859        C860   1.384       .  A
C859       C1448   1.476       .  S
C860        H862   1.082       .  S
N863        N864   1.322       .  A
N863        C867   1.346       .  A
N863      Cu2347   2.075       .  S
N864        C865   1.342       .  A
N864       Cu870   2.060       .  S
C865        C866   1.379       .  A
C865        H868   1.082       .  S
C866        C867   1.384       .  A
C866       C1172   1.465       .  S
C867        H869   1.082       .  S
Cu870       N873   2.060       .  S
Cu871      N2339   2.075       .  S
Cu871       N881   2.076       .  S
Cu872      N2350   2.072       .  S
Cu872       N880   2.072       .  S
N873        N874   1.321       .  A
N873        C877   1.343       .  A
N874        C875   1.344       .  A
N874      Cu2348   2.072       .  S
C875        C876   1.383       .  A
C875        H878   1.083       .  S
C876        C877   1.381       .  A
C876        C923   1.465       .  S
C877        H879   1.082       .  S
N880        N881   1.323       .  A
N880        C884   1.345       .  A
N881        C882   1.344       .  A
C882        C883   1.384       .  A
C882        H885   1.082       .  S
C883        C884   1.382       .  A
C883       C1428   1.476   1_655  S
C884        H886   1.082       .  S
N887        N888   1.322       .  A
N887        C891   1.345       .  A
N887       Cu895   2.067       .  S
N888        C889   1.343       .  A
N888       Cu894   2.068       .  S
C889        C890   1.381       .  A
C889        H892   1.082       .  S
C890        C891   1.382       .  A
C890       C1295   1.465       .  S
C891        H893   1.082       .  S
Cu894       N897   2.068       .  S
Cu895       N905   2.068       .  S
Cu896       N898   2.071       .  S
Cu896       N904   2.071       .  S
N897        N898   1.322       .  A
N897        C901   1.344       .  A
N898        C899   1.345       .  A
C899        C900   1.383       .  A
C899        H902   1.082       .  S
C900        C901   1.382       .  A
C901        H903   1.082       .  S
N904        N905   1.322       .  A
N904        C908   1.344       .  A
N905        C906   1.343       .  A
C906        C907   1.383       .  A
C906        H909   1.082       .  S
C907        C908   1.384       .  A
C907       C1417   1.477       .  S
C908        H910   1.081       .  S
O911       Cu919   2.002       .  S
O911        C921   1.277       .  A
O912       Cu919   2.004       .  S
O912        C922   1.277       .  A
O913       Cu919   2.006       .  S
O913        C923   1.278       .  A
O914       Cu919   2.005       .  S
O914        C924   1.277       .  A
O915       Cu920   1.996       .  S
O915        C924   1.276       .  A
O916       Cu920   2.002       .  S
O916        C923   1.276       .  A
O917       Cu920   2.003       .  S
O917        C922   1.277       .  A
O918       Cu920   2.002       .  S
O918        C921   1.277       .  A
Cu919      Cu920   2.378       .  S
C922       C2486   1.464       .  S
N925        N926   1.321       .  A
N925       Cu933   2.072       .  S
N926        C927   1.341       .  A
N926       Cu932   2.048       .  S
C927        H930   1.081       .  S
C928        C929   1.383       .  A
C929        H931   1.083       .  S
Cu932       N935   2.047       .  S
Cu933       N943   2.073       .  S
Cu934       N936   2.070       .  S
Cu934       N942   2.071       .  S
N935        N936   1.321       .  A
N935        C939   1.340       .  A
N936        C937   1.345       .  A
C937        C938   1.383       .  A
C937       H2416   1.083       .  S
C938        C939   1.377       .  A
C938       C1048   1.460       .  S
C939        H941   1.081       .  S
H940       C2413   1.083       .  S
N942        N943   1.323       .  A
N942        C946   1.343       .  A
N943        C944   1.344       .  A
C944        C945   1.383       .  A
C944        H947   1.082       .  S
C945        C946   1.382       .  A
C945       C1397   1.474       .  S
C946        H948   1.085       .  S
N949        N950   1.321       .  A
N949       C2429   1.344       .  A
N949       Cu957   2.069       .  S
N950        C951   1.340       .  A
N950       Cu956   2.046       .  S
C951       C2428   1.377       .  A
C951        H954   1.081       .  S
C952       C2427   1.377       .  A
C952        C953   1.383       .  A
C952       C1170   1.460       .  S
C953       N2425   1.344       .  A
C953        H955   1.083       .  S
Cu956       N959   2.047       .  S
Cu957       N967   2.070       .  S
Cu958       N960   2.079       .  S
Cu958       N966   2.080       .  S
N959        N960   1.321       .  A
N959        C963   1.341       .  A
C961        C962   1.385       .  A
C961        H964   1.083       .  S
C962       C1031   1.464       .  S
C963        H965   1.081       .  S
N966        N967   1.323       .  A
N966        C970   1.345       .  A
N967        C968   1.344       .  A
C968        C969   1.383       .  A
C968        H971   1.084       .  S
C969        C970   1.385       .  A
C969       C1408   1.478       .  S
C970        H972   1.083       .  S
N973        N974   1.321       .  A
N973        C977   1.344       .  A
N973       Cu981   2.064       .  S
N974        C975   1.341       .  A
N974       Cu980   2.052       .  S
C975        C976   1.378       .  A
C975        H978   1.082       .  S
C976        C977   1.382       .  A
C976       C1045   1.459       .  S
C977        H979   1.082       .  S
Cu980       N983   2.052       .  S
Cu981       N991   2.064       .  S
Cu982       N984   2.067       .  S
Cu982       N990   2.067       .  S
N983        N984   1.321       .  A
N983        C987   1.342       .  A
N984        C985   1.343       .  A
C985        C986   1.382       .  A
C985        H988   1.082       .  S
C986        C987   1.379       .  A
C987        H989   1.082       .  S
N990        N991   1.322       .  A
N990        C994   1.343       .  A
N991        C992   1.343       .  A
C992        C993   1.382       .  A
C992        H995   1.082       .  S
C993        C994   1.382       .  A
C993       C1377   1.472       .  S
C994        H996   1.082       .  S
N997        N998   1.321       .  A
N997       C1001   1.344       .  A
N997      Cu1005   2.068       .  S
N998        C999   1.343       .  A
N998      Cu1004   2.061       .  S
C999       C1000   1.380       .  A
C999       H1002   1.082       .  S
C1000      C1001   1.383       .  A
C1000      C1034   1.463       .  S
C1001      H1003   1.082       .  S
Cu1004     N1007   2.061       .  S
Cu1005     N1015   2.068       .  S
Cu1006     N1008   2.069       .  S
Cu1006     N1014   2.069       .  S
N1007      N1008   1.321       .  A
N1007      C1011   1.342       .  A
N1008      C1009   1.345       .  A
C1009      C1010   1.383       .  A
C1009      H1012   1.082       .  S
C1010      C1011   1.380       .  A
C1010      C2398   1.464   1_455  S
C1011      H1013   1.083       .  S
N1014      N1015   1.323       .  A
N1014      C1018   1.344       .  A
N1015      C1016   1.343       .  A
C1016      C1017   1.381       .  A
C1016      H1019   1.082       .  S
C1017      C1018   1.383       .  A
C1017      C1388   1.473       .  S
C1018      H1020   1.081       .  S
O1021     Cu1029   2.008       .  S
O1021      C1031   1.278       .  A
O1022     Cu1029   2.005       .  S
O1022      C1032   1.276       .  A
O1023     Cu1029   2.003       .  S
O1023      C1033   1.276       .  A
O1024     Cu1029   2.005       .  S
O1024      C1034   1.277       .  A
O1025     Cu1030   2.002       .  S
O1025      C1034   1.276       .  A
O1026     Cu1030   2.004       .  S
O1026      C1033   1.277       .  A
O1027     Cu1030   2.002       .  S
O1027      C1032   1.278       .  A
O1028     Cu1030   1.998       .  S
O1028      C1031   1.275       .  A
Cu1029    Cu1030   2.378       .  S
O1035     Cu1043   1.998       .  S
O1035      C1045   1.277       .  A
O1036     Cu1043   1.997       .  S
O1036      C2522   1.276   1_455  A
O1037     Cu1043   1.999       .  S
O1037      C2523   1.276   1_455  A
O1038     Cu1043   2.002       .  S
O1038      C1048   1.278       .  A
O1039     Cu2520   1.994   1_455  S
O1039      C1048   1.275       .  A
O1040     Cu1044   1.996       .  S
O1040      C1047   1.277       .  A
O1041     Cu1044   2.004       .  S
O1041      C1046   1.278       .  A
O1042     Cu2520   1.997   1_455  S
O1042      C1045   1.276       .  A
Cu1043    Cu2520   2.380   1_455  S
Cu1044     O2515   1.994       .  S
Cu1044     O2518   1.997       .  S
Cu1044    Cu2519   2.380       .  S
C1046      C1052   1.462       .  S
C1046      O2512   1.276       .  A
C1047      C2600   1.460       .  S
C1047      O2513   1.276       .  A
N1049      N1050   1.322       .  A
N1049      C1053   1.345       .  A
N1049     Cu1057   2.073       .  S
N1050      C1051   1.342       .  A
N1050     Cu1056   2.057       .  S
C1051      C1052   1.379       .  A
C1051      H1054   1.082       .  S
C1052      C1053   1.383       .  A
C1053      H2531   1.082       .  S
H1055      C2529   1.082       .  S
Cu1056     N1059   2.057       .  S
Cu1057     N1067   2.074       .  S
Cu1058     N1060   2.066       .  S
Cu1058     N1066   2.067       .  S
N1059      N1060   1.321       .  A
N1059      C1063   1.342       .  A
N1060      C1061   1.344       .  A
C1061      C1062   1.382       .  A
C1061      H1064   1.082       .  S
C1062      C1063   1.380       .  A
C1063      H1065   1.081       .  S
N1066      N1067   1.322       .  A
N1066      C1070   1.344       .  A
N1067      C1068   1.345       .  A
C1068      C1069   1.383       .  A
C1068      H1071   1.082       .  S
C1069      C1070   1.381       .  A
C1069      C1357   1.473       .  S
C1070      H1072   1.083       .  S
N1073      N1074   1.322       .  A
N1073      C1077   1.347       .  A
N1073     Cu1081   2.082       .  S
N1074      C1075   1.342       .  A
N1074     Cu1080   2.058       .  S
C1075      C1076   1.379       .  A
C1075      H1078   1.082       .  S
C1076      C1077   1.385       .  A
C1076      C1110   1.467       .  S
C1077      H1079   1.082       .  S
Cu1080     N1083   2.058       .  S
Cu1081     N1091   2.082       .  S
Cu1082     N1084   2.076       .  S
Cu1082     N1090   2.077       .  S
N1083      N1084   1.321       .  A
N1083      C1087   1.343       .  A
N1084      C2561   1.346       .  A
C1085      N2560   1.346       .  A
C1085      C1086   1.385       .  A
C1085      H1088   1.082       .  S
C1086      C2563   1.380       .  A
C1087      C2562   1.380       .  A
C1087      H1089   1.081       .  S
N1090      N1091   1.323       .  A
N1090      C1094   1.344       .  A
N1091      C1092   1.346       .  A
C1092      C1093   1.385       .  A
C1092      H1095   1.082       .  S
C1093      C1094   1.384       .  A
C1093      C1368   1.480       .  S
C1094      H1096   1.081       .  S
O1097     Cu1105   1.998       .  S
O1097      C1107   1.276       .  A
O1098     Cu1105   2.002       .  S
O1098      C1108   1.278       .  A
O1099     Cu1105   2.004       .  S
O1099      C1109   1.277       .  A
O1100     Cu1105   2.003       .  S
O1100      C1110   1.276       .  A
O1101     Cu1106   2.011       .  S
O1101      C1110   1.279       .  A
O1102     Cu1106   2.007       .  S
O1102      C1109   1.277       .  A
O1103     Cu1106   1.995       .  S
O1103      C1108   1.275       .  A
O1104     Cu1106   1.994       .  S
O1104      C1107   1.276       .  A
Cu1105    Cu1106   2.379       .  S
C1107      C1138   1.458       .  S
N1111      N1112   1.321       .  A
N1111      C1115   1.345       .  A
N1111     Cu1119   2.066       .  S
N1112      C1113   1.340       .  A
N1112     Cu1118   2.049       .  S
C1113      C1114   1.378       .  A
C1113      H1116   1.081       .  S
C1114      C1115   1.383       .  A
C1114      C1231   1.460       .  S
Cu1118     N1121   2.049       .  S
Cu1119     N1129   2.067       .  S
Cu1120     N1122   2.066       .  S
Cu1120     N1128   2.067       .  S
N1121      N1122   1.321       .  A
N1121      C1125   1.340       .  A
N1122      C2599   1.344       .  A
C1123      N2598   1.345       .  A
C1123      C1124   1.383       .  A
C1123      H1126   1.083       .  S
C1124      C2601   1.378       .  A
C1124      C2523   1.460       .  S
C1125      C2600   1.378       .  A
C1125      H1127   1.081       .  S
N1128      N1129   1.322       .  A
N1128      C1132   1.343       .  A
N1129      C1130   1.343       .  A
C1130      C1131   1.383       .  A
C1130      H1133   1.079       .  S
C1131      C1132   1.382       .  A
C1131      C1337   1.475       .  S
C1132      H1134   1.083       .  S
N1135      N1136   1.320       .  A
N1135     Cu1143   2.060       .  S
N1136      C1137   1.340       .  A
N1136     Cu1142   2.048       .  S
C1137      H1140   1.081       .  S
C1138      C1139   1.381       .  A
C1139      H1141   1.083       .  S
Cu1142     N1145   2.048       .  S
Cu1143     N1153   2.061       .  S
Cu1144     N2622   2.067       .  S
Cu1144     N1152   2.068       .  S
N1145      N2622   1.321       .  A
N1145      C2625   1.339       .  A
N1146      N2621   1.321       .  A
N1146      C1147   1.345   1_655  A
N1146     Cu2620   2.067       .  S
C1147      C1148   1.383       .  A
C1147      H1150   1.082       .  S
C1148      C1149   1.377       .  A
C1148      C1293   1.459       .  S
C1149      N2621   1.339   1_455  A
C1149      H1151   1.082       .  S
N1152      N1153   1.322       .  A
N1152      C1156   1.342       .  A
N1153      C1154   1.342       .  A
C1154      C1155   1.382       .  A
C1154      H1157   1.080       .  S
C1155      C1156   1.382       .  A
C1155      C1348   1.473       .  S
C1156      H1158   1.084       .  S
O1159     Cu1167   1.998       .  S
O1159      C1169   1.277       .  A
O1160     Cu1167   1.995       .  S
O1160      C1170   1.275       .  A
O1161     Cu1167   2.003       .  S
O1161      C1171   1.276       .  A
O1162     Cu1167   2.005       .  S
O1162      C1172   1.278       .  A
O1163     Cu1168   2.004       .  S
O1163      C1172   1.276       .  A
O1164     Cu1168   2.006       .  S
O1164      C1171   1.277       .  A
O1165     Cu1168   2.001       .  S
O1165      C1170   1.278       .  A
O1166     Cu1168   2.000       .  S
O1166      C1169   1.276       .  A
Cu1167    Cu1168   2.379       .  S
C1171      C1200   1.464       .  S
N1173      N1174   1.322       .  A
N1173      C1177   1.345       .  A
N1173     Cu1181   2.074       .  S
N1174      C1175   1.344       .  A
N1174     Cu1180   2.067       .  S
C1175      C1176   1.381       .  A
C1175      H1178   1.081       .  S
C1176      C1177   1.382       .  A
C1176      C1233   1.466       .  S
C1177      H1179   1.082       .  S
Cu1180     N1183   2.067       .  S
Cu1181     N1191   2.075       .  S
Cu1182     N1184   2.072       .  S
Cu1182     N1190   2.072       .  S
N1183      N1184   1.322       .  A
N1183      C1187   1.344       .  A
N1184      C1185   1.345       .  A
C1185      C1186   1.383       .  A
C1185      H1188   1.082       .  S
C1186      C1187   1.382       .  A
C1187      H1189   1.081       .  S
N1190      N1191   1.322       .  A
N1190      C1194   1.344       .  A
N1191      C1192   1.345       .  A
C1192      C1193   1.384       .  A
C1192      H1195   1.082       .  S
C1193      C1194   1.382       .  A
C1193      C1317   1.476       .  S
C1194      H1196   1.082       .  S
N1197      N1198   1.322       .  A
N1197      C1201   1.345       .  A
N1197     Cu1205   2.073       .  S
N1198      C1199   1.343       .  A
N1198     Cu1204   2.062       .  S
C1199      C1200   1.380       .  A
C1199      H1202   1.081       .  S
C1200      C1201   1.383       .  A
C1201      H1203   1.082       .  S
Cu1204     N1207   2.062       .  S
Cu1205     N1215   2.074       .  S
Cu1206     N1208   2.060       .  S
Cu1206     N1214   2.061       .  S
N1207      N1208   1.321       .  A
N1207      C1211   1.342       .  A
N1208      C1209   1.344   1_565  A
C1209      C1210   1.381       .  A
C1209      H1212   1.082       .  S
C1210      C1211   1.381   1_545  A
C1211      H1213   1.082       .  S
N1214      N1215   1.322       .  A
N1214      C1218   1.342       .  A
N1215      C1216   1.345       .  A
C1216      C1217   1.385       .  A
C1216      H1219   1.082       .  S
C1217      C1218   1.382       .  A
C1217      C1328   1.476       .  S
C1218      H1220   1.081       .  S
O1221      C1231   1.276       .  A
O1222     Cu1229   2.004       .  S
O1222      C1232   1.278       .  A
O1223     Cu1229   2.008       .  S
O1223      C1233   1.278       .  A
O1224     Cu1229   2.002   1_545  S
O1225     Cu1230   2.006       .  S
O1225      C1234   1.278       .  A
O1226     Cu1230   2.004       .  S
O1227     Cu1230   1.997       .  S
O1228     Cu1230   1.997       .  S
O1228      C1231   1.277       .  A
C1234      C1238   1.464       .  S
N1235      N1236   1.322       .  A
N1235      C1239   1.345       .  A
N1235     Cu1243   2.073       .  S
N1236      C1237   1.342       .  A
N1236     Cu1242   2.060       .  S
C1237      C1238   1.379       .  A
C1237      H1240   1.082       .  S
C1238      C1239   1.383       .  A
C1239      H1241   1.082       .  S
Cu1242     N1245   2.060       .  S
Cu1243     N1253   2.073       .  S
Cu1244     N1246   2.071       .  S
Cu1244     N1252   2.071       .  S
N1245      N1246   1.321       .  A
N1245      C1249   1.343       .  A
N1246      C1247   1.345       .  A
C1247      C1248   1.383       .  A
C1247      H1250   1.082       .  S
C1248      C1249   1.381       .  A
C1249      H1251   1.082       .  S
N1252      N1253   1.323       .  A
N1252      C1256   1.343       .  A
N1253      C1254   1.346       .  A
C1254      C1255   1.384       .  A
C1254      H1257   1.081       .  S
C1255      C1256   1.383       .  A
C1255      C1297   1.476       .  S
C1256      H1258   1.082       .  S
N1259      N1260   1.322       .  A
N1259      C1263   1.345       .  A
N1259     Cu1267   2.077       .  S
N1260      C1261   1.343       .  A
N1260     Cu1266   2.060       .  S
C1261      C1262   1.379       .  A
C1261      H1264   1.082       .  S
C1262      C1263   1.384       .  A
C1262      C1296   1.465       .  S
C1263      H1265   1.082       .  S
Cu1266     N1269   2.060       .  S
Cu1267     N1277   2.078       .  S
Cu1268     N1270   2.066       .  S
Cu1268     N1276   2.066       .  S
N1269      N1270   1.320       .  A
N1269      C1273   1.342       .  A
N1270      C1271   1.345       .  A
C1271      C1272   1.383       .  A
C1271      H1274   1.082       .  S
C1272      C1273   1.381       .  A
C1273      H1275   1.083       .  S
N1276      N1277   1.323       .  A
N1276      C1280   1.342       .  A
N1277      C1278   1.346       .  A
C1278      C1279   1.384       .  A
C1278      H1281   1.081       .  S
C1279      C1280   1.379       .  A
C1279      C1308   1.472       .  S
C1280      H1282   1.083       .  S
O1283     Cu1291   1.992       .  S
O1283      C1293   1.276       .  A
O1284     Cu1291   1.992       .  S
O1284      C1294   1.274       .  A
O1285     Cu1291   2.009       .  S
O1285      C1295   1.278       .  A
O1286     Cu1291   2.014       .  S
O1286      C1296   1.279       .  A
O1287     Cu1292   1.996       .  S
O1287      C1296   1.275       .  A
O1288     Cu1292   2.001       .  S
O1288      C1295   1.277       .  A
O1289     Cu1292   2.001       .  S
O1289      C1294   1.278       .  A
O1290     Cu1292   2.000       .  S
O1290      C1293   1.276       .  A
Cu1291    Cu1292   2.379       .  S
C1297      C1298   1.412       .  A
C1297      C1302   1.404       .  A
C1298      C1299   1.397       .  A
C1298     Br1314   1.920       .  S
C1299      C1300   1.400       .  A
C1299      H1303   1.085       .  S
C1300      C1301   1.407       .  A
C1300      C1304   1.474       .  S
C1301      C1302   1.399       .  A
C1301     Br1313   1.919       .  S
C1302      H1305   1.084       .  S
C1304      C1306   1.402       .  A
C1304      C1310   1.407       .  A
C1306      C1307   1.399       .  A
C1306      H1311   1.084       .  S
C1307      C1308   1.410       .  A
C1307     Br1315   1.919       .  S
C1308      C1309   1.403       .  A
C1309      C1310   1.397       .  A
C1309      H1312   1.084       .  S
C1310     Br1316   1.919       .  S
C1317      C1318   1.412       .  A
C1317      C1322   1.404       .  A
C1318      C1319   1.399       .  A
C1318     Br1334   1.919       .  S
C1319      C1320   1.400       .  A
C1319      H1323   1.083       .  S
C1320      C1321   1.405       .  A
C1320      C1324   1.472       .  S
C1321      C1322   1.398       .  A
C1321     Br1333   1.918       .  S
C1322      H1325   1.084       .  S
C1324      C1326   1.400       .  A
C1324      C1330   1.406       .  A
C1326      C1327   1.398       .  A
C1326      H1331   1.085       .  S
C1327      C1328   1.413       .  A
C1327     Br1335   1.920       .  S
C1328      C1329   1.404       .  A
C1329      C1330   1.397       .  A
C1329      H1332   1.084       .  S
C1330     Br1336   1.918       .  S
C1337      C1338   1.413       .  A
C1337      C1342   1.405       .  A
C1338      C1339   1.396       .  A
C1338     Br1354   1.920       .  S
C1339      C1340   1.398       .  A
C1339      H1343   1.084       .  S
C1340      C1341   1.405       .  A
C1340      C1344   1.468       .  S
C1341      C1342   1.396       .  A
C1341     Br2829   1.919       .  S
C1342      H1345   1.083       .  S
C1344      C1346   1.399       .  A
C1344      C1350   1.405       .  A
C1346      C1347   1.396       .  A
C1346      H1351   1.084       .  S
C1347      C1348   1.413       .  A
C1347     Br1355   1.920       .  S
C1348      C1349   1.404       .  A
C1349      C1350   1.395       .  A
C1349      H1352   1.084       .  S
C1350     Br1356   1.918       .  S
Br1353     C2817   1.919       .  S
C1357      C1358   1.409       .  A
C1357      C1362   1.402       .  A
C1358      C1359   1.399       .  A
C1358     Br1374   1.919       .  S
C1359      C1360   1.403       .  A
C1359      H1363   1.084       .  S
C1360      C1361   1.408       .  A
C1360      C1364   1.478       .  S
C1361      C1362   1.398       .  A
C1361     Br1373   1.919       .  S
C1362      H1365   1.083       .  S
C1364      C1366   1.401       .  A
C1364      C1370   1.408       .  A
C1366      C1367   1.398       .  A
C1366      H1371   1.085       .  S
C1367      C1368   1.413       .  A
C1367     Br1375   1.919       .  S
C1368      C1369   1.405       .  A
C1369      C1370   1.400       .  A
C1369      H1372   1.084       .  S
C1370     Br1376   1.919       .  S
C1377      C1378   1.410       .  A
C1377      C1382   1.404       .  A
C1378      C1379   1.397       .  A
C1378     Br1394   1.919       .  S
C1379      C1380   1.400       .  A
C1379      H1383   1.085       .  S
C1380      C1381   1.405       .  A
C1380      C1384   1.469       .  S
C1381      C1382   1.396       .  A
C1381     Br1393   1.919       .  S
C1382      H1385   1.084       .  S
C1384      C1386   1.399       .  A
C1384      C1390   1.405       .  A
C1386      C1387   1.396       .  A
C1386      H1391   1.085       .  S
C1387      C1388   1.412       .  A
C1387     Br1395   1.920       .  S
C1388      C1389   1.404       .  A
C1389      C1390   1.397       .  A
C1389      H1392   1.084       .  S
C1390     Br1396   1.918       .  S
C1397      C1398   1.411       .  A
C1397      C1402   1.404       .  A
C1398      C1399   1.400       .  A
C1398     Br1414   1.919       .  S
C1399      C1400   1.402       .  A
C1399      H1403   1.084       .  S
C1400      C1401   1.405       .  A
C1400      C1404   1.473       .  S
C1401      C1402   1.396       .  A
C1401     Br1413   1.918       .  S
C1402      H1405   1.084       .  S
C1404      C1406   1.401       .  A
C1404      C1410   1.405       .  A
C1406      C1407   1.399       .  A
C1406      H1411   1.083       .  S
C1407      C1408   1.411       .  A
C1407     Br1415   1.919       .  S
C1408      C1409   1.406       .  A
C1409      C1410   1.398       .  A
C1409      H1412   1.083       .  S
C1410     Br1416   1.919       .  S
C1417      C1418   1.413       .  A
C1417      C1422   1.404       .  A
C1418      C1419   1.399       .  A
C1418     Br1434   1.920       .  S
C1419      C1420   1.400       .  A
C1419      H1423   1.084       .  S
C1420      C1421   1.405       .  A
C1420      C1424   1.472       .  S
C1421      C1422   1.396       .  A
C1421     Br2909   1.918   1_455  S
C1422      H2901   1.085       .  S
C1424      C2902   1.400   1_455  A
C1424      C1430   1.406       .  A
H1425      C2898   1.085       .  S
C1426      C2900   1.400       .  A
C1426      C1427   1.398       .  A
C1426      H1431   1.084       .  S
C1427      C2904   1.411   1_556  A
C1427     Br1435   1.919   1_556  S
C1428      C2903   1.411   1_454  A
C1428      C1429   1.405       .  A
C1429      C1430   1.399   1_554  A
C1429      H1432   1.083       .  S
C1430     Br1436   1.918       .  S
Br1433     C2897   1.918       .  S
C1437      C1438   1.414       .  A
C1438      C1439   1.398   1_544  A
C1438     Br1454   1.920   1_545  S
C1439      C1440   1.399   1_565  A
C1439      H1443   1.085       .  S
C1440      C1444   1.472       .  S
C1441      C1442   1.398   1_556  A
C1441     Br1453   1.919       .  S
C1442      H1445   1.084       .  S
C1444      C1450   1.406   1_545  A
C1446      C1447   1.398       .  A
C1446      H1451   1.084       .  S
C1447     Br1455   1.919       .  S
C1448      C1449   1.405       .  A
C1449      C1450   1.397       .  A
C1449      H1452   1.084       .  S
C1450     Br1456   1.919       .  S
C1457      C1458   1.414       .  A
C1457      C1462   1.405       .  A
C1458      C1459   1.397   1_554  A
C1458     Br1474   1.920       .  S
C1459      C1460   1.400       .  A
C1459      H1463   1.084       .  S
C1460      C1461   1.404       .  A
C1460      C1464   1.470       .  S
C1461      C1462   1.395   1_556  A
C1461     Br1473   1.918       .  S
C1462      H1465   1.084       .  S
C1464      C1466   1.401       .  A
C1464      C1470   1.407       .  A
C1466      C1467   1.396       .  A
C1466      H1471   1.085       .  S
C1467      C1468   1.408       .  A
C1467     Br1475   1.919       .  S
C1468      C1469   1.401       .  A
C1469      C1470   1.397       .  A
C1469      H1472   1.086       .  S
C1470     Br1476   1.918       .  S
N1477      N1478   1.321       .  A
N1477      C1481   1.347       .  A
N1477     Cu1485   2.073       .  S
N1478      C1479   1.340       .  A
N1478     Cu1484   2.053       .  S
C1479      C1480   1.378       .  A
C1479      H1482   1.081       .  S
C1480      C1481   1.385       .  A
C1480      C1770   1.464       .  S
C1481      H1483   1.083       .  S
Cu1484     N1487   2.053       .  S
Cu1485     N1495   2.074       .  S
Cu1486     N1488   2.061       .  S
Cu1486     N1494   2.063       .  S
N1487      N1488   1.320       .  A
N1487      C1491   1.341       .  A
N1488      C1489   1.344       .  A
C1489      C1490   1.383       .  A
C1489      H1492   1.082       .  S
C1490      C1491   1.379       .  A
C1490      C1907   1.461       .  S
C1491      H1493   1.082       .  S
N1494      N1495   1.323       .  A
N1494      C1498   1.341       .  A
N1495      C1496   1.344       .  A
C1496      C1497   1.385       .  A
C1496      H1499   1.084       .  S
C1497      C1498   1.381       .  A
C1497      C2195   1.477       .  S
C1498      H1500   1.085       .  S
N1501      N1502   1.320       .  A
N1501      C1505   1.345       .  A
N1501     Cu1509   2.069       .  S
N1502      C1503   1.340       .  A
N1502     Cu1508   2.044       .  S
C1503      C1504   1.377       .  A
C1503      H1506   1.081       .  S
C1504      C1505   1.383       .  A
C1504      C1846   1.460       .  S
C1505      H1507   1.083       .  S
Cu1508     N1511   2.044       .  S
Cu1509     N1519   2.070       .  S
Cu1510     N1512   2.068       .  S
Cu1510     N1518   2.069       .  S
N1511      N1512   1.321       .  A
N1511      C1515   1.339       .  A
N1512      C1513   1.345       .  A
C1513      C1514   1.383       .  A
C1513      H1516   1.082       .  S
C1514      C1515   1.376       .  A
C1514      C2032   1.458       .  S
C1515      H1517   1.082       .  S
N1518      N1519   1.324       .  A
N1518      C1522   1.343       .  A
N1519      C1520   1.344       .  A
C1520      C1521   1.379       .  A
C1520      H1523   1.084       .  S
C1521      C1522   1.380       .  A
C1521      C2206   1.466       .  S
C1522      H1524   1.082       .  S
O1525     Cu1533   2.002       .  S
O1525      C1535   1.277       .  A
O1526     Cu1533   2.003       .  S
O1526      C1536   1.277       .  A
O1527     Cu1533   2.002       .  S
O1527      C1537   1.277       .  A
O1528     Cu1533   2.003       .  S
O1528      C1538   1.276       .  A
O1529     Cu1534   2.008       .  S
O1529      C1538   1.278       .  A
O1530     Cu1534   2.011       .  S
O1530      C1537   1.278       .  A
O1531     Cu1534   1.996       .  S
O1531      C1536   1.276       .  A
O1532     Cu1534   1.996       .  S
O1532      C1535   1.276       .  A
Cu1533    Cu1534   2.378       .  S
C1535      C1724   1.460       .  S
C1536      C1800   1.461       .  S
C1537      C1924   1.467       .  S
C1538      C1986   1.465       .  S
O1539     Cu1547   2.005       .  S
O1539      C1549   1.277       .  A
O1540     Cu1547   2.006       .  S
O1540      C1550   1.277       .  A
O1541     Cu1547   1.999       .  S
O1541      C1551   1.277       .  A
O1542     Cu1547   2.004       .  S
O1542      C1552   1.276       .  A
O1543     Cu1548   2.010       .  S
O1543      C1552   1.278       .  A
O1544     Cu1548   2.011       .  S
O1544      C1551   1.277       .  A
O1545     Cu1548   2.002       .  S
O1545      C1550   1.277       .  A
O1546     Cu1548   2.007       .  S
O1546      C1549   1.277       .  A
Cu1547    Cu1548   2.377       .  S
C1549      C1638   1.466       .  S
C1550      C2748   1.465       .  S
C1551      C1590   1.465       .  S
C1552      C1824   1.467       .  S
N1553      N1554   1.321       .  A
N1553      C1557   1.345       .  A
N1553     Cu1561   2.069       .  S
N1554      C1555   1.342       .  A
N1554     Cu1560   2.060       .  S
C1555      C1556   1.380       .  A
C1555      H1558   1.082       .  S
C1556      C1557   1.383       .  A
C1556      C1771   1.463       .  S
C1557      H1559   1.083       .  S
Cu1560     N1563   2.060       .  S
Cu1561     N2309   2.070       .  S
Cu1562     N1564   2.069       .  S
Cu1562     N2308   2.070       .  S
N1563      N1564   1.322       .  A
N1563      C1567   1.342       .  A
N1564      C1565   1.344       .  A
C1565      C1566   1.382       .  A
C1565      H1568   1.082       .  S
C1566      C1567   1.380       .  A
C1566      C1659   1.463       .  S
C1567      H1569   1.082       .  S
N1570      N1571   1.322       .  A
N1570      C1574   1.344       .  A
N1570     Cu2300   2.070       .  S
N1571      C1572   1.343       .  A
N1571     Cu2299   2.070       .  S
C1572      C1573   1.385       .  A
C1572      H1575   1.081       .  S
C1573      C1574   1.385       .  A
C1573      C2175   1.480       .  S
C1574      H1576   1.082       .  S
N1577      N1578   1.321       .  A
N1577      C1581   1.345       .  A
N1577     Cu1585   2.071       .  S
N1578      C1579   1.343       .  A
N1578     Cu1584   2.063       .  S
C1579      C1580   1.381       .  A
C1579      H1582   1.081       .  S
C1580      C1581   1.383       .  A
C1580      C1847   1.465       .  S
C1581      H1583   1.082       .  S
Cu1584     N1587   2.063       .  S
Cu1585     N1595   2.071       .  S
Cu1586     N1588   2.072       .  S
Cu1586     N1594   2.072       .  S
N1587      N1588   1.322       .  A
N1587      C1591   1.342       .  A
N1588      C1589   1.346       .  A
C1589      C1590   1.383       .  A
C1589      H1592   1.082       .  S
C1590      C1591   1.380       .  A
C1591      H1593   1.082       .  S
N1594      N1595   1.323       .  A
N1594      C1598   1.344       .  A
N1595      C1596   1.344       .  A
C1596      C1597   1.383       .  A
C1596      H1599   1.082       .  S
C1597      C1598   1.384       .  A
C1597      C2186   1.476       .  S
C1598      H1600   1.081       .  S
N1601      N1602   1.322       .  A
N1601      C1605   1.346       .  A
N1602      C1603   1.342       .  A
N1602     Cu1608   2.060       .  S
C1603      C1604   1.379       .  A
C1603      H1606   1.082       .  S
C1604      C1605   1.384       .  A
C1604      C1910   1.465       .  S
C1605      H1607   1.081       .  S
Cu1608     N1611   2.060       .  S
Cu1609     N1619   2.076       .  S
Cu1610     N1618   2.072       .  S
N1611      N1612   1.321       .  A
N1611      C1615   1.343       .  A
N1612      C1613   1.344       .  A
C1613      C1614   1.383       .  A
C1613      H1616   1.082       .  S
C1614      C1615   1.381       .  A
C1614      C1661   1.465       .  S
C1615      H1617   1.081       .  S
N1618      N1619   1.323       .  A
N1618      C1622   1.345       .  A
N1619      C1620   1.344       .  A
C1620      C1621   1.384       .  A
C1620      H1623   1.082       .  S
C1621      C1622   1.382       .  A
C1621      C2166   1.476       .  S
C1622      H1624   1.082       .  S
N1625      N1626   1.322       .  A
N1625      C1629   1.345       .  A
N1625     Cu1633   2.067       .  S
N1626      C1627   1.343       .  A
N1626     Cu1632   2.068       .  S
C1627      C1628   1.381       .  A
C1627      H1630   1.082       .  S
C1628      C1629   1.382       .  A
C1628      C2033   1.465       .  S
C1629      H1631   1.082       .  S
Cu1632     N1635   2.068       .  S
Cu1633     N1643   2.068       .  S
Cu1634     N1636   2.071       .  S
Cu1634     N1642   2.071       .  S
N1635      N1636   1.322       .  A
N1635      C1639   1.344       .  A
N1636      C1637   1.345       .  A
C1637      C1638   1.383       .  A
C1637      H1640   1.082       .  S
C1638      C1639   1.382       .  A
C1639      H1641   1.081       .  S
N1642      N1643   1.322       .  A
N1642      C1646   1.344       .  A
N1643      C1644   1.343       .  A
C1644      C1645   1.383       .  A
C1644      H1647   1.082       .  S
C1645      C1646   1.384       .  A
C1645      C2155   1.477       .  S
C1646      H1648   1.081       .  S
O1649     Cu1657   2.002       .  S
O1649      C1659   1.277       .  A
O1650     Cu1657   2.004       .  S
O1650      C1660   1.277       .  A
O1651     Cu1657   2.006       .  S
O1651      C1661   1.278       .  A
O1652     Cu1657   2.005       .  S
O1652      C1662   1.277       .  A
O1653     Cu1658   1.996       .  S
O1653      C1662   1.276       .  A
O1654     Cu1658   2.002       .  S
O1654      C1661   1.276       .  A
O1655     Cu1658   2.003       .  S
O1655      C1660   1.277       .  A
O1656     Cu1658   2.002       .  S
O1656      C1659   1.277       .  A
Cu1657    Cu1658   2.378       .  S
C1662      C2686   1.462       .  S
N1663      N1664   1.321       .  A
N1663      C2405   1.345       .  A
N1663     Cu1671   2.072       .  S
N1664      C1665   1.341       .  A
N1664     Cu1670   2.048       .  S
C1665      C2404   1.378       .  A
C1665      H1668   1.081       .  S
C1666      C2403   1.378       .  A
C1666      C1667   1.383       .  A
C1666      C2708   1.461       .  S
C1667      N2401   1.345       .  A
C1667      H1669   1.083       .  S
Cu1670     N1673   2.047       .  S
Cu1671     N1681   2.073       .  S
Cu1672     N1674   2.070       .  S
Cu1672     N1680   2.071       .  S
N1673      N1674   1.321       .  A
N1673      C1677   1.340       .  A
N1674      C1675   1.345       .  A
C1675      C1676   1.383       .  A
C1676      C1677   1.377       .  A
C1676      C1786   1.460       .  S
C1677      H1679   1.081       .  S
N1680      N1681   1.323       .  A
N1680      C1684   1.343       .  A
N1681      C1682   1.344       .  A
C1682      C1683   1.383       .  A
C1682      H1685   1.082       .  S
C1683      C1684   1.382       .  A
C1683      C2135   1.474       .  S
C1684      H1686   1.085       .  S
N1687      N1688   1.321       .  A
N1687     Cu1695   2.069       .  S
N1688      C1689   1.340       .  A
N1688     Cu1694   2.046       .  S
C1689      H1692   1.082       .  S
C1690      C1691   1.383       .  A
C1690      C1908   1.460   1_455  S
C1691      H1693   1.083       .  S
Cu1694     N1697   2.047       .  S
Cu1695     N1705   2.070       .  S
Cu1696     N1698   2.079       .  S
Cu1696     N1704   2.080       .  S
N1697      N1698   1.321       .  A
N1697      C1701   1.341       .  A
N1698      C2437   1.346       .  A
C1699      N2436   1.346   1_545  A
C1699      C1700   1.385       .  A
C1699      H1702   1.083       .  S
C1700      C2439   1.377   1_545  A
C1700      C1769   1.464       .  S
C1701      C2438   1.378       .  A
C1701      H1703   1.081       .  S
N1704      N1705   1.323       .  A
N1704      C1708   1.345       .  A
N1705      C1706   1.344       .  A
C1706      C1707   1.383       .  A
C1706      H1709   1.084       .  S
C1707      C1708   1.385       .  A
C1707      C2146   1.478       .  S
C1708      H1710   1.084       .  S
N1711      N1712   1.321       .  A
N1711      C1715   1.344       .  A
N1711     Cu1719   2.064       .  S
N1712      C1713   1.341       .  A
N1712     Cu1718   2.052       .  S
C1713      C1714   1.378       .  A
C1713      H1716   1.082       .  S
C1714      C1715   1.381       .  A
C1714      C1783   1.459       .  S
C1715      H1717   1.082       .  S
Cu1718     N1721   2.052       .  S
Cu1719     N1729   2.064       .  S
Cu1720     N1722   2.067       .  S
Cu1720     N1728   2.067       .  S
N1721      N1722   1.321       .  A
N1721      C1725   1.342       .  A
N1722      C1723   1.343       .  A
C1723      C1724   1.382       .  A
C1723      H1726   1.082       .  S
C1724      C1725   1.379       .  A
C1725      H1727   1.082       .  S
N1728      N1729   1.322       .  A
N1728      C1732   1.343       .  A
N1729      C1730   1.343       .  A
C1730      C1731   1.382       .  A
C1730      H1733   1.081       .  S
C1731      C1732   1.382       .  A
C1731      C2115   1.472       .  S
C1732      H1734   1.082       .  S
N1735      N1736   1.321       .  A
N1735      C1739   1.344       .  A
N1735     Cu1743   2.068       .  S
N1736      C1737   1.343       .  A
N1736     Cu1742   2.061       .  S
C1737      C1738   1.380       .  A
C1737      H1740   1.082       .  S
C1738      C1739   1.383       .  A
C1738      C1772   1.463       .  S
C1739      H1741   1.082       .  S
Cu1742     N1745   2.061       .  S
Cu1743     N1753   2.068       .  S
Cu1744     N1746   2.069       .  S
Cu1744     N1752   2.069       .  S
N1745      N1746   1.321       .  A
N1745      C1749   1.342       .  A
N1746      C1747   1.345       .  A
C1747      C1748   1.383       .  A
C1747      H1750   1.082       .  S
C1748      C1749   1.380       .  A
C1749      H1751   1.082       .  S
N1752      N1753   1.323       .  A
N1752      C1756   1.344       .  A
N1753      C1754   1.343       .  A
C1754      C1755   1.381       .  A
C1754      H1757   1.082       .  S
C1755      C1756   1.383       .  A
C1755      C2126   1.473       .  S
C1756      H1758   1.081       .  S
O1759     Cu1767   2.008       .  S
O1759      C1769   1.278       .  A
O1760     Cu1767   2.005       .  S
O1760      C1770   1.276       .  A
O1761     Cu1767   2.003       .  S
O1761      C1771   1.276       .  A
O1762     Cu1767   2.005       .  S
O1762      C1772   1.277       .  A
O1763     Cu1768   2.002       .  S
O1763      C1772   1.276       .  A
O1764     Cu1768   2.004       .  S
O1764      C1771   1.277       .  A
O1765     Cu1768   2.002       .  S
O1765      C1770   1.278       .  A
O1766     Cu1768   1.998       .  S
O1766      C1769   1.275       .  A
Cu1767    Cu1768   2.378       .  S
O1773     Cu1781   1.998       .  S
O1773      C1783   1.277       .  A
O1774     Cu1781   1.997       .  S
O1775     Cu1781   1.999       .  S
O1776     Cu1781   2.002       .  S
O1776      C1786   1.278       .  A
O1777      C1786   1.275       .  A
O1778     Cu1782   1.996       .  S
O1778      C1785   1.277       .  A
O1779     Cu1782   2.004       .  S
O1779      C1784   1.278       .  A
O1780      C1783   1.276       .  A
C1784      C1790   1.462       .  S
N1787      N1788   1.322       .  A
N1787      C1791   1.345       .  A
N1787     Cu1795   2.073       .  S
N1788      C1789   1.342       .  A
N1788     Cu1794   2.057       .  S
C1789      C1790   1.379       .  A
C1789      H1792   1.082       .  S
C1790      C1791   1.383       .  A
Cu1794     N1797   2.057       .  S
Cu1795     N1805   2.074       .  S
Cu1796     N1798   2.066       .  S
Cu1796     N1804   2.067       .  S
N1797      N1798   1.321       .  A
N1797      C1801   1.342       .  A
N1798      C1799   1.344       .  A
C1799      C1800   1.382       .  A
C1799      H1802   1.083       .  S
C1800      C1801   1.380       .  A
C1801      H1803   1.081       .  S
N1804      N1805   1.322       .  A
N1804      C1808   1.344       .  A
N1805      C1806   1.345       .  A
C1806      C1807   1.383       .  A
C1806      H1809   1.082       .  S
C1807      C1808   1.381       .  A
C1807      C2095   1.473       .  S
C1808      H1810   1.083       .  S
N1811      N1812   1.322       .  A
N1811      C1815   1.347       .  A
N1811     Cu1819   2.082       .  S
N1812      C1813   1.342       .  A
N1812     Cu1818   2.058       .  S
C1813      C1814   1.379       .  A
C1813      H1816   1.082       .  S
C1814      C1815   1.385       .  A
C1814      C1848   1.467       .  S
C1815      H1817   1.082       .  S
Cu1818     N1821   2.058       .  S
Cu1819     N1829   2.082       .  S
Cu1820     N1822   2.076   1_655  S
Cu1820     N1828   2.077       .  S
N1821      N1822   1.321   1_655  A
N1821      C1825   1.343   1_655  A
C1823      C1824   1.385       .  A
C1823      H1826   1.082       .  S
C1825      H1827   1.082       .  S
N1828      N1829   1.323       .  A
N1828      C1832   1.344       .  A
N1829      C1830   1.346       .  A
C1830      C1831   1.385       .  A
C1830      H1833   1.082       .  S
C1831      C1832   1.384       .  A
C1831      C2106   1.480       .  S
C1832      H1834   1.081       .  S
O1835     Cu1843   1.998       .  S
O1835      C1845   1.276       .  A
O1836     Cu1843   2.002       .  S
O1836      C1846   1.278       .  A
O1837     Cu1843   2.004       .  S
O1837      C1847   1.277       .  A
O1838     Cu1843   2.003       .  S
O1838      C1848   1.276       .  A
O1839     Cu1844   2.011       .  S
O1839      C1848   1.279       .  A
O1840     Cu1844   2.007       .  S
O1840      C1847   1.277       .  A
O1841     Cu1844   1.995       .  S
O1841      C1846   1.275       .  A
O1842     Cu1844   1.994       .  S
O1842      C1845   1.276       .  A
Cu1843    Cu1844   2.379       .  S
C1845      C1876   1.458       .  S
N1849      N1850   1.321       .  A
N1849      C1853   1.345       .  A
N1849     Cu1857   2.066       .  S
N1850      C1851   1.340       .  A
N1850     Cu1856   2.049       .  S
C1851      C1852   1.378       .  A
C1851      H1854   1.081       .  S
C1852      C1853   1.383       .  A
C1852      C1969   1.460       .  S
C1853      H2593   1.083       .  S
H1855      C2591   1.083       .  S
Cu1856     N1859   2.049       .  S
Cu1857     N1867   2.067       .  S
Cu1858     N1860   2.066       .  S
Cu1858     N1866   2.067       .  S
N1859      N1860   1.321       .  A
N1859      C1863   1.340       .  A
C1861      C1862   1.383       .  A
C1861      H1864   1.083       .  S
C1863      H1865   1.081       .  S
N1866      N1867   1.322       .  A
N1866      C1870   1.343       .  A
N1867      C1868   1.343       .  A
C1868      C1869   1.383       .  A
C1868      H1871   1.079       .  S
C1869      C1870   1.382       .  A
C1869      C2075   1.475       .  S
C1870      H1872   1.083       .  S
N1873      N1874   1.320       .  A
N1873      C2615   1.343   1_545  A
N1873     Cu1881   2.060       .  S
N1874      C1875   1.340       .  A
N1874     Cu1880   2.048       .  S
C1875      C2614   1.379   1_545  A
C1875      H1878   1.081       .  S
C1876      C2613   1.378       .  A
C1876      C1877   1.381       .  A
C1877      N2611   1.343       .  A
C1877      H1879   1.084       .  S
Cu1880     N1883   2.048       .  S
Cu1881     N1891   2.061       .  S
Cu1882     N1890   2.068       .  S
N1884      C1885   1.345       .  A
C1885      C1886   1.382       .  A
C1885      H1888   1.083       .  S
C1886      C1887   1.377       .  A
C1886      C2031   1.459       .  S
C1887      H1889   1.082       .  S
N1890      N1891   1.322       .  A
N1890      C1894   1.342       .  A
N1891      C1892   1.342       .  A
C1892      C1893   1.382       .  A
C1892      H1895   1.081       .  S
C1893      C1894   1.382       .  A
C1893      C2086   1.473       .  S
C1894      H1896   1.084       .  S
O1897     Cu1905   1.998       .  S
O1897      C1907   1.277       .  A
O1898     Cu1905   1.995       .  S
O1898      C1908   1.275       .  A
O1899     Cu1905   2.003       .  S
O1899      C1909   1.276       .  A
O1900     Cu1905   2.005       .  S
O1900      C1910   1.278       .  A
O1901     Cu1906   2.004       .  S
O1901      C1910   1.276       .  A
O1902     Cu1906   2.006       .  S
O1902      C1909   1.277       .  A
O1903     Cu1906   2.001       .  S
O1903      C1908   1.278       .  A
O1904     Cu1906   2.000       .  S
O1904      C1907   1.276       .  A
Cu1905    Cu1906   2.379       .  S
C1909      C1938   1.464       .  S
N1911      N1912   1.322       .  A
N1911      C1915   1.345       .  A
N1911     Cu1919   2.074       .  S
N1912      C1913   1.344       .  A
N1912     Cu1918   2.067       .  S
C1913      C1914   1.381       .  A
C1913      H1916   1.082       .  S
C1914      C1915   1.383       .  A
C1914      C1971   1.466       .  S
C1915      H1917   1.082       .  S
Cu1918     N1921   2.067       .  S
Cu1919     N1929   2.075       .  S
Cu1920     N1922   2.072       .  S
Cu1920     N1928   2.072       .  S
N1921      N1922   1.322       .  A
N1921      C1925   1.344       .  A
N1922      C1923   1.345       .  A
C1923      C1924   1.383       .  A
C1923      H1926   1.082       .  S
C1924      C1925   1.382       .  A
C1925      H1927   1.081       .  S
N1928      N1929   1.322       .  A
N1928      C1932   1.344       .  A
N1929      C1930   1.345       .  A
C1930      C1931   1.384       .  A
C1930      H1933   1.081       .  S
C1931      C1932   1.382       .  A
C1931      C2055   1.476       .  S
C1932      H1934   1.083       .  S
N1935      N1936   1.322       .  A
N1935      C1939   1.345       .  A
N1935     Cu1943   2.073       .  S
N1936      C1937   1.343       .  A
N1936     Cu1942   2.062       .  S
C1937      C1938   1.380       .  A
C1937      H1940   1.081       .  S
C1938      C1939   1.383       .  A
C1939      H1941   1.083       .  S
Cu1942     N1945   2.062       .  S
Cu1943     N1953   2.074       .  S
Cu1944     N1946   2.060       .  S
Cu1944     N1952   2.061       .  S
N1945      N1946   1.321       .  A
N1945      C1949   1.342       .  A
N1946      C1947   1.344       .  A
C1947      C1948   1.381       .  A
C1947      H1950   1.082       .  S
C1948      C1949   1.381       .  A
C1948      C2400   1.462       .  S
C1949      H1951   1.082       .  S
N1952      N1953   1.322       .  A
N1952      C1956   1.342       .  A
N1953      C1954   1.345       .  A
C1954      C1955   1.385       .  A
C1954      H1957   1.082       .  S
C1955      C1956   1.382       .  A
C1955      C2066   1.476       .  S
C1956      H1958   1.081       .  S
O1959     Cu2705   1.999   1_545  S
O1959      C1969   1.276       .  A
O1960     Cu1967   2.004       .  S
O1960      C1970   1.278       .  A
O1961     Cu1967   2.008       .  S
O1961      C1971   1.278       .  A
O1962     Cu1967   2.002       .  S
O1962      C2710   1.276       .  A
O1963     Cu1968   2.006       .  S
O1963      C1972   1.278       .  A
O1964     Cu1968   2.004   1_565  S
O1964      C2709   1.277       .  A
O1965     Cu1968   1.997   1_565  S
O1965      C2708   1.275       .  A
O1966     Cu1968   1.997       .  S
O1966      C1969   1.277       .  A
Cu1967     O2697   1.999       .  S
Cu1967    Cu2706   2.379       .  S
Cu1968    Cu2705   2.379   1_545  S
C1970      C2404   1.461       .  S
C1970      O2703   1.275       .  A
C1971      O2702   1.277       .  A
C1972      C1976   1.464       .  S
C1972      O2700   1.276       .  A
N1973      N1974   1.322       .  A
N1973      C1977   1.345       .  A
N1973     Cu1981   2.073       .  S
N1974      C1975   1.342       .  A
N1974     Cu1980   2.060       .  S
C1975      C1976   1.379       .  A
C1975      H1978   1.082       .  S
C1976      C1977   1.383       .  A
C1977      H1979   1.082       .  S
Cu1980     N1983   2.060       .  S
Cu1981     N1991   2.073       .  S
Cu1982     N1984   2.071       .  S
Cu1982     N1990   2.071       .  S
N1983      N1984   1.321       .  A
N1983      C1987   1.343       .  A
N1984      C1985   1.345       .  A
C1985      C1986   1.384       .  A
C1985      H1988   1.082       .  S
C1986      C1987   1.380       .  A
C1987      H1989   1.082       .  S
N1990      N1991   1.323       .  A
N1990      C1994   1.343       .  A
N1991      C1992   1.346       .  A
C1992      C1993   1.383       .  A
C1992      H1995   1.081       .  S
C1993      C1994   1.383       .  A
C1993      C2035   1.476       .  S
C1994      H1996   1.082       .  S
N1997      N1998   1.322       .  A
N1997      C2001   1.345       .  A
N1997     Cu2005   2.077       .  S
N1998      C1999   1.343       .  A
N1998     Cu2004   2.060       .  S
C1999      C2000   1.379       .  A
C1999      H2002   1.082       .  S
C2000      C2001   1.384       .  A
C2000      C2034   1.465       .  S
C2001      H2003   1.082       .  S
Cu2004     N2007   2.060       .  S
Cu2005     N2015   2.078       .  S
Cu2006     N2008   2.066       .  S
Cu2006     N2014   2.066       .  S
N2007      N2008   1.320       .  A
N2007      C2011   1.342       .  A
N2008      C2009   1.345       .  A
C2009      C2010   1.383   1_545  A
C2009      H2012   1.082   1_545  S
C2010      C2011   1.381   1_565  A
C2010      C2288   1.465       .  S
C2011      H2013   1.082       .  S
N2014      N2015   1.323       .  A
N2014      C2018   1.342       .  A
N2015      C2016   1.346       .  A
C2016      C2017   1.384       .  A
C2016      H2019   1.081       .  S
C2017      C2018   1.379       .  A
C2017      C2046   1.472       .  S
C2018      H2020   1.083       .  S
O2021     Cu2029   1.992       .  S
O2021      C2031   1.276       .  A
O2022     Cu2029   1.992       .  S
O2022      C2032   1.274       .  A
O2023     Cu2029   2.009       .  S
O2023      C2033   1.278       .  A
O2024     Cu2029   2.014       .  S
O2024      C2034   1.279       .  A
O2025     Cu2030   1.996       .  S
O2025      C2034   1.275       .  A
O2026     Cu2030   2.001       .  S
O2026      C2033   1.277       .  A
O2027     Cu2030   2.001       .  S
O2027      C2032   1.278       .  A
O2028     Cu2030   2.000       .  S
O2028      C2031   1.276       .  A
Cu2029    Cu2030   2.379       .  S
C2035      C2036   1.412       .  A
C2035      C2040   1.404       .  A
C2036      C2037   1.397       .  A
C2036     Br2052   1.920       .  S
C2037      C2038   1.400       .  A
C2037      H2041   1.085       .  S
C2038      C2039   1.407       .  A
C2038      C2042   1.474       .  S
C2039      C2040   1.399       .  A
C2039     Br2051   1.919       .  S
C2040      H2043   1.085       .  S
C2042      C2044   1.402       .  A
C2042      C2048   1.407       .  A
C2044      C2045   1.399       .  A
C2044      H2049   1.084       .  S
C2045      C2046   1.410       .  A
C2045     Br2053   1.919       .  S
C2046      C2047   1.403       .  A
C2047      C2048   1.397       .  A
C2047      H2050   1.084       .  S
C2048     Br2054   1.919       .  S
C2055      C2056   1.412       .  A
C2055      C2060   1.404       .  A
C2056      C2057   1.399       .  A
C2056     Br2072   1.919       .  S
C2057      C2058   1.400       .  A
C2057      H2061   1.083       .  S
C2058      C2059   1.405       .  A
C2058      C2062   1.472       .  S
C2059      C2060   1.398       .  A
C2059     Br2071   1.918       .  S
C2060      H2063   1.084       .  S
C2062      C2064   1.400       .  A
C2062      C2068   1.406       .  A
C2064      C2065   1.398       .  A
C2064      H2069   1.085       .  S
C2065      C2066   1.413       .  A
C2065     Br2073   1.920       .  S
C2066      C2067   1.404       .  A
C2067      C2068   1.397       .  A
C2067      H2070   1.084       .  S
C2068     Br2074   1.918       .  S
C2075      C2076   1.413       .  A
C2075      C2080   1.405       .  A
C2076      C2077   1.396       .  A
C2076     Br2092   1.920       .  S
C2077      C2078   1.398       .  A
C2077      H2081   1.085       .  S
C2078      C2079   1.405       .  A
C2078      C2082   1.468       .  S
C2079      C2080   1.396       .  A
C2080      H2083   1.083       .  S
C2082      C2084   1.399       .  A
C2082      C2088   1.405       .  A
C2084      C2085   1.396       .  A
C2084      H2089   1.084       .  S
C2085      C2086   1.413       .  A
C2085     Br2093   1.920       .  S
C2086      C2087   1.404       .  A
C2087      C2088   1.395       .  A
C2087      H2090   1.084       .  S
C2088     Br2094   1.918       .  S
C2095      C2096   1.409       .  A
C2095      C2100   1.402       .  A
C2096      C2097   1.399       .  A
C2096     Br2112   1.919       .  S
C2097      C2098   1.403       .  A
C2097      H2101   1.083       .  S
C2098      C2099   1.408       .  A
C2098      C2102   1.478       .  S
C2099      C2100   1.398       .  A
C2099     Br2111   1.919       .  S
C2100      H2103   1.083       .  S
C2102      C2104   1.401       .  A
C2102      C2108   1.408       .  A
C2104      C2105   1.398       .  A
C2104      H2109   1.085       .  S
C2105      C2106   1.413       .  A
C2105     Br2113   1.919       .  S
C2106      C2107   1.405       .  A
C2107      C2108   1.400       .  A
C2107      H2110   1.084       .  S
C2108     Br2114   1.919       .  S
C2115      C2116   1.410       .  A
C2115      C2120   1.404       .  A
C2116      C2117   1.397       .  A
C2116     Br2132   1.919       .  S
C2117      C2118   1.400       .  A
C2117      H2121   1.085       .  S
C2118      C2119   1.405       .  A
C2118      C2122   1.469       .  S
C2119      C2120   1.396       .  A
C2119     Br2131   1.919       .  S
C2120      H2123   1.084       .  S
C2122      C2124   1.399       .  A
C2122      C2128   1.405       .  A
C2124      C2125   1.396       .  A
C2124      H2129   1.085       .  S
C2125      C2126   1.412       .  A
C2125     Br2133   1.920       .  S
C2126      C2127   1.404       .  A
C2127      C2128   1.397       .  A
C2127      H2130   1.085       .  S
C2128     Br2134   1.918       .  S
C2135      C2136   1.411       .  A
C2135      C2140   1.404       .  A
C2136      C2137   1.400       .  A
C2136     Br2152   1.919       .  S
C2137      C2138   1.402       .  A
C2137      H2141   1.084       .  S
C2138      C2139   1.405       .  A
C2138      C2142   1.473       .  S
C2139      C2140   1.396       .  A
C2139     Br2151   1.918       .  S
C2140      H2143   1.084       .  S
C2142      C2144   1.401       .  A
C2142      C2148   1.405       .  A
C2144      C2145   1.399       .  A
C2144      H2149   1.083       .  S
C2145      C2146   1.411       .  A
C2145     Br2153   1.919       .  S
C2146      C2147   1.405       .  A
C2147      C2148   1.398       .  A
C2147      H2150   1.083       .  S
C2148     Br2154   1.919       .  S
C2155      C2156   1.413       .  A
C2155      C2160   1.404       .  A
C2156      C2157   1.399       .  A
C2156     Br2172   1.920       .  S
C2157      C2158   1.400       .  A
C2157      H2161   1.084       .  S
C2158      C2159   1.405       .  A
C2158      C2162   1.472       .  S
C2159      C2160   1.396       .  A
C2162      C2168   1.406       .  A
C2164      C2165   1.398       .  A
C2164      H2169   1.084       .  S
C2165     Br2173   1.919   1_556  S
C2166      C2167   1.405       .  A
C2167      C2168   1.399   1_554  A
C2167      H2170   1.083       .  S
C2168     Br2174   1.918       .  S
C2175      C2176   1.414       .  A
C2175      C2918   1.406       .  A
C2176      C2177   1.398   1_554  A
C2176     Br2192   1.920       .  S
C2177      C2178   1.399       .  A
C2177      H2181   1.086       .  S
C2178      C2917   1.405       .  A
C2178      C2182   1.472       .  S
C2179      C2916   1.405       .  A
C2179      C2180   1.398   1_556  A
C2179     Br2191   1.919       .  S
C2180      C2913   1.406       .  A
C2180      H2183   1.084       .  S
C2182      C2922   1.401       .  A
C2182      C2188   1.406       .  A
C2184      C2920   1.401       .  A
C2184      C2185   1.398       .  A
C2184      H2189   1.085       .  S
C2185      C2924   1.411   1_545  A
C2185     Br2193   1.919       .  S
C2186      C2923   1.411       .  A
C2186      C2187   1.405       .  A
C2187      C2188   1.397       .  A
C2187      H2190   1.084       .  S
C2188     Br2194   1.919       .  S
C2195      C2196   1.414       .  A
C2195      C2200   1.405       .  A
C2196      C2197   1.398   1_554  A
C2196     Br2212   1.920       .  S
C2197      C2198   1.400       .  A
C2197      H2201   1.084       .  S
C2198      C2199   1.404       .  A
C2198      C2202   1.470       .  S
C2199      C2200   1.395   1_556  A
C2199     Br2211   1.918       .  S
C2200      H2203   1.083       .  S
C2202      C2204   1.401       .  A
C2202      C2208   1.407       .  A
C2204      C2205   1.396       .  A
C2204      H2209   1.084       .  S
C2205      C2206   1.408       .  A
C2205     Br2213   1.919       .  S
C2206      C2207   1.401       .  A
C2207      C2208   1.397       .  A
C2207      H2210   1.085       .  S
C2208     Br2214   1.918       .  S
N2215      N2216   1.321       .  A
N2215      C2219   1.347       .  A
N2215     Cu2223   2.073       .  S
N2216      C2217   1.340       .  A
N2216     Cu2222   2.053       .  S
C2217      C2218   1.378       .  A
C2217      H2220   1.082       .  S
C2218      C2219   1.385       .  A
C2218      C2508   1.464       .  S
C2219      H2221   1.083       .  S
Cu2222     N2225   2.053       .  S
Cu2223     N2233   2.074       .  S
Cu2224     N2226   2.061       .  S
Cu2224     N2232   2.063       .  S
N2225      N2226   1.320       .  A
N2225      C2229   1.341       .  A
N2226      C2227   1.345       .  A
C2227      C2228   1.383       .  A
C2227      H2230   1.082       .  S
C2228      C2229   1.379       .  A
C2228      C2645   1.461       .  S
C2229      H2231   1.082       .  S
N2232      N2233   1.323       .  A
N2232      C2236   1.341       .  A
N2233      C2234   1.344       .  A
C2234      C2235   1.385       .  A
C2234      H2237   1.084       .  S
C2235      C2236   1.381       .  A
C2235      C2933   1.477       .  S
C2236      H2238   1.085       .  S
N2239      N2240   1.320       .  A
N2239      C2243   1.345       .  A
N2239     Cu2247   2.069       .  S
N2240      C2241   1.340       .  A
N2240     Cu2246   2.044       .  S
C2241      C2242   1.377       .  A
C2241      H2244   1.081       .  S
C2242      C2243   1.383       .  A
C2242      C2584   1.460       .  S
C2243      H2245   1.083       .  S
Cu2246     N2249   2.044       .  S
Cu2247     N2257   2.070       .  S
Cu2248     N2250   2.068       .  S
Cu2248     N2256   2.069       .  S
N2249      N2250   1.321       .  A
N2249      C2253   1.339       .  A
N2250      C2251   1.345       .  A
C2251      C2252   1.383       .  A
C2251      H2254   1.082       .  S
C2252      C2253   1.376       .  A
C2252      C2770   1.458       .  S
C2253      H2255   1.082       .  S
N2256      N2257   1.324       .  A
N2256      C2260   1.343       .  A
N2257      C2258   1.344       .  A
C2258      C2259   1.379       .  A
C2258      H2261   1.084       .  S
C2259      C2260   1.380       .  A
C2259      C2944   1.466       .  S
C2260      H2262   1.083       .  S
O2263     Cu2271   2.002       .  S
O2263      C2273   1.277       .  A
O2264     Cu2271   2.003       .  S
O2264      C2274   1.277       .  A
O2265     Cu2271   2.002       .  S
O2265      C2275   1.277       .  A
O2266     Cu2271   2.003       .  S
O2266      C2276   1.276       .  A
O2267     Cu2272   2.008       .  S
O2267      C2276   1.278       .  A
O2268     Cu2272   2.011       .  S
O2268      C2275   1.278       .  A
O2269     Cu2272   1.996       .  S
O2269      C2274   1.276       .  A
O2270     Cu2272   1.996       .  S
O2270      C2273   1.276       .  A
Cu2271    Cu2272   2.378       .  S
C2273      C2462   1.460       .  S
C2274      C2538   1.461       .  S
C2275      C2662   1.467       .  S
C2276      C2724   1.465       .  S
O2277     Cu2285   2.005       .  S
O2277      C2287   1.277       .  A
O2278     Cu2285   2.006       .  S
O2278      C2288   1.277       .  A
O2279     Cu2285   1.999       .  S
O2279      C2289   1.277       .  A
O2280     Cu2285   2.004       .  S
O2280      C2290   1.276       .  A
O2281     Cu2286   2.010       .  S
O2281      C2290   1.278       .  A
O2282     Cu2286   2.011       .  S
O2282      C2289   1.277       .  A
O2283     Cu2286   2.002       .  S
O2283      C2288   1.277       .  A
O2284     Cu2286   2.007       .  S
O2284      C2287   1.277       .  A
Cu2285    Cu2286   2.377       .  S
C2287      C2376   1.466       .  S
C2289      C2328   1.465       .  S
C2290      C2562   1.467       .  S
N2291      N2292   1.321       .  A
N2291      C2295   1.345       .  A
N2291     Cu2299   2.069       .  S
N2292      C2293   1.342       .  A
N2292     Cu2298   2.060       .  S
C2293      C2294   1.380       .  A
C2293      H2296   1.082       .  S
C2294      C2295   1.383       .  A
C2294      C2509   1.463       .  S
C2295      H2297   1.082       .  S
Cu2298     N2301   2.060       .  S
Cu2300     N2302   2.069       .  S
N2301      N2302   1.322       .  A
N2301      C2305   1.342       .  A
N2302      C2303   1.344       .  A
C2303      C2304   1.382       .  A
C2303      H2306   1.082       .  S
C2304      C2305   1.380       .  A
C2304      C2397   1.463       .  S
C2305      H2307   1.081       .  S
N2308      N2309   1.322       .  A
N2308      C2312   1.344       .  A
N2309      C2310   1.343       .  A
C2310      C2311   1.385       .  A
C2310      H2313   1.081       .  S
C2311      C2312   1.385       .  A
C2311      C2913   1.480       .  S
C2312      H2314   1.082       .  S
N2315      N2316   1.321       .  A
N2315      C2319   1.345       .  A
N2315     Cu2323   2.071       .  S
N2316      C2317   1.343       .  A
N2316     Cu2322   2.063       .  S
C2317      C2318   1.381       .  A
C2317      H2320   1.081       .  S
C2318      C2319   1.383       .  A
C2318      C2585   1.465       .  S
C2319      H2321   1.083       .  S
Cu2322     N2325   2.063       .  S
Cu2323     N2333   2.071       .  S
Cu2324     N2326   2.072       .  S
Cu2324     N2332   2.072       .  S
N2325      N2326   1.322       .  A
N2325      C2329   1.342       .  A
N2326      C2327   1.346       .  A
C2327      C2328   1.383       .  A
C2327      H2330   1.082       .  S
C2328      C2329   1.380       .  A
C2329      H2331   1.082       .  S
N2332      N2333   1.323       .  A
N2332      C2336   1.344       .  A
N2333      C2334   1.344       .  A
C2334      C2335   1.383       .  A
C2334      H2337   1.082       .  S
C2335      C2336   1.384       .  A
C2335      C2924   1.476       .  S
C2336      H2338   1.081       .  S
N2339      N2340   1.322       .  A
N2339      C2343   1.346       .  A
N2340      C2341   1.342       .  A
N2340     Cu2346   2.060       .  S
C2341      C2342   1.379       .  A
C2341      H2344   1.082       .  S
C2342      C2343   1.384       .  A
C2342      C2648   1.465       .  S
C2343      H2345   1.082       .  S
Cu2346     N2349   2.060       .  S
Cu2347     N2357   2.076       .  S
Cu2348     N2356   2.072       .  S
N2349      N2350   1.321       .  A
N2349      C2353   1.343       .  A
N2350      C2351   1.344       .  A
C2351      C2352   1.383       .  A
C2351      H2354   1.083       .  S
C2352      C2353   1.381       .  A
C2352      C2399   1.465       .  S
C2353      H2355   1.082       .  S
N2356      N2357   1.323       .  A
N2356      C2360   1.345       .  A
N2357      C2358   1.344       .  A
C2358      C2359   1.384       .  A
C2358      H2361   1.082       .  S
C2359      C2360   1.382       .  A
C2359      C2904   1.476       .  S
C2360      H2362   1.082       .  S
N2363      N2364   1.322       .  A
N2363      C2367   1.345       .  A
N2363     Cu2371   2.067       .  S
N2364      C2365   1.343       .  A
N2364     Cu2370   2.068       .  S
C2365      C2366   1.381       .  A
C2365      H2368   1.082       .  S
C2366      C2367   1.382       .  A
C2366      C2771   1.465       .  S
C2367      H2369   1.082       .  S
Cu2370     N2373   2.068       .  S
Cu2371     N2381   2.068       .  S
Cu2372     N2374   2.071       .  S
Cu2372     N2380   2.071       .  S
N2373      N2374   1.322       .  A
N2373      C2377   1.344       .  A
N2374      C2375   1.345       .  A
C2375      C2376   1.383       .  A
C2375      H2378   1.082       .  S
C2376      C2377   1.382       .  A
C2377      H2379   1.082       .  S
N2380      N2381   1.322       .  A
N2380      C2384   1.344       .  A
N2381      C2382   1.343       .  A
C2382      C2383   1.383       .  A
C2382      H2385   1.082       .  S
C2383      C2384   1.384       .  A
C2383      C2893   1.477       .  S
C2384      H2386   1.081       .  S
O2387     Cu2395   2.002       .  S
O2387      C2397   1.277       .  A
O2388     Cu2395   2.004       .  S
O2388      C2398   1.277       .  A
O2389     Cu2395   2.006       .  S
O2389      C2399   1.278       .  A
O2390     Cu2395   2.005       .  S
O2390      C2400   1.277       .  A
O2391     Cu2396   1.996       .  S
O2391      C2400   1.276       .  A
O2392     Cu2396   2.002       .  S
O2392      C2399   1.276       .  A
O2393     Cu2396   2.003       .  S
O2393      C2398   1.277       .  A
O2394     Cu2396   2.002       .  S
O2394      C2397   1.277       .  A
Cu2395    Cu2396   2.378       .  S
N2401      N2402   1.321       .  A
N2401     Cu2409   2.072       .  S
N2402      C2403   1.341       .  A
N2402     Cu2408   2.048       .  S
C2403      H2406   1.081       .  S
C2404      C2405   1.383       .  A
C2405      H2407   1.083       .  S
Cu2408     N2411   2.047       .  S
Cu2409     N2419   2.073       .  S
Cu2410     N2412   2.070       .  S
Cu2410     N2418   2.071       .  S
N2411      N2412   1.321       .  A
N2411      C2415   1.340       .  A
N2412      C2413   1.345       .  A
C2413      C2414   1.383       .  A
C2414      C2415   1.377       .  A
C2414      C2524   1.460       .  S
C2415      H2417   1.081       .  S
N2418      N2419   1.323       .  A
N2418      C2422   1.343       .  A
N2419      C2420   1.344       .  A
C2420      C2421   1.383       .  A
C2420      H2423   1.082       .  S
C2421      C2422   1.382       .  A
C2421      C2873   1.474       .  S
C2422      H2424   1.085       .  S
N2425      N2426   1.321       .  A
N2425     Cu2433   2.069       .  S
N2426      C2427   1.340       .  A
N2426     Cu2432   2.046       .  S
C2427      H2430   1.082       .  S
C2428      C2429   1.383       .  A
C2428      C2646   1.460   1_455  S
C2429      H2431   1.083       .  S
Cu2432     N2435   2.047       .  S
Cu2433     N2443   2.070       .  S
Cu2434     N2436   2.079       .  S
Cu2434     N2442   2.080       .  S
N2435      N2436   1.321       .  A
N2435      C2439   1.341       .  A
C2437      C2438   1.385       .  A
C2437      H2440   1.083       .  S
C2438      C2507   1.464       .  S
C2439      H2441   1.081       .  S
N2442      N2443   1.323       .  A
N2442      C2446   1.345       .  A
N2443      C2444   1.344       .  A
C2444      C2445   1.383       .  A
C2444      H2447   1.084       .  S
C2445      C2446   1.385       .  A
C2445      C2884   1.478       .  S
C2446      H2448   1.084       .  S
N2449      N2450   1.321       .  A
N2449      C2453   1.344       .  A
N2449     Cu2457   2.064       .  S
N2450      C2451   1.341       .  A
N2450     Cu2456   2.052       .  S
C2451      C2452   1.378       .  A
C2451      H2454   1.082       .  S
C2452      C2453   1.381       .  A
C2452      C2521   1.459       .  S
C2453      H2455   1.083       .  S
Cu2456     N2459   2.052       .  S
Cu2457     N2467   2.064       .  S
Cu2458     N2460   2.067       .  S
Cu2458     N2466   2.067       .  S
N2459      N2460   1.321       .  A
N2459      C2463   1.342       .  A
N2460      C2461   1.343       .  A
C2461      C2462   1.382       .  A
C2461      H2464   1.083       .  S
C2462      C2463   1.379       .  A
C2463      H2465   1.082       .  S
N2466      N2467   1.322       .  A
N2466      C2470   1.343       .  A
N2467      C2468   1.343       .  A
C2468      C2469   1.382       .  A
C2468      H2471   1.082       .  S
C2469      C2470   1.382       .  A
C2469      C2853   1.472       .  S
C2470      H2472   1.082       .  S
N2473      N2474   1.321       .  A
N2473      C2477   1.344       .  A
N2473     Cu2481   2.068       .  S
N2474      C2475   1.343       .  A
N2474     Cu2480   2.061       .  S
C2475      C2476   1.380       .  A
C2475      H2478   1.082       .  S
C2476      C2477   1.383       .  A
C2476      C2510   1.463       .  S
C2477      H2479   1.082       .  S
Cu2480     N2483   2.061       .  S
Cu2481     N2491   2.068       .  S
Cu2482     N2484   2.069       .  S
Cu2482     N2490   2.069       .  S
N2483      N2484   1.321       .  A
N2483      C2487   1.342       .  A
N2484      C2485   1.345       .  A
C2485      C2486   1.383       .  A
C2485      H2488   1.082       .  S
C2486      C2487   1.380       .  A
C2487      H2489   1.083       .  S
N2490      N2491   1.323       .  A
N2490      C2494   1.344       .  A
N2491      C2492   1.344       .  A
C2492      C2493   1.381       .  A
C2492      H2495   1.082       .  S
C2493      C2494   1.383       .  A
C2493      C2864   1.473       .  S
C2494      H2496   1.081       .  S
O2497     Cu2505   2.008       .  S
O2497      C2507   1.278       .  A
O2498     Cu2505   2.005       .  S
O2498      C2508   1.276       .  A
O2499     Cu2505   2.003       .  S
O2499      C2509   1.276       .  A
O2500     Cu2505   2.005       .  S
O2500      C2510   1.277       .  A
O2501     Cu2506   2.002       .  S
O2501      C2510   1.276       .  A
O2502     Cu2506   2.004       .  S
O2502      C2509   1.277       .  A
O2503     Cu2506   2.002       .  S
O2503      C2508   1.278       .  A
O2504     Cu2506   1.998       .  S
O2504      C2507   1.275       .  A
Cu2505    Cu2506   2.378       .  S
O2511     Cu2519   1.998       .  S
O2511      C2521   1.277       .  A
O2512     Cu2519   1.997       .  S
O2513     Cu2519   1.999       .  S
O2514     Cu2519   2.002       .  S
O2514      C2524   1.278       .  A
O2515      C2524   1.275       .  A
O2516     Cu2520   1.996       .  S
O2516      C2523   1.277       .  A
O2517     Cu2520   2.004       .  S
O2517      C2522   1.278       .  A
O2518      C2521   1.276       .  A
C2522      C2528   1.462       .  S
N2525      N2526   1.322       .  A
N2525      C2529   1.345       .  A
N2525     Cu2533   2.073       .  S
N2526      C2527   1.342       .  A
N2526     Cu2532   2.057       .  S
C2527      C2528   1.379       .  A
C2527      H2530   1.082       .  S
C2528      C2529   1.383       .  A
Cu2532     N2535   2.057       .  S
Cu2533     N2543   2.074       .  S
Cu2534     N2536   2.066       .  S
Cu2534     N2542   2.067       .  S
N2535      N2536   1.321       .  A
N2535      C2539   1.342       .  A
N2536      C2537   1.344       .  A
C2537      C2538   1.382       .  A
C2537      H2540   1.082       .  S
C2538      C2539   1.380       .  A
C2539      H2541   1.082       .  S
N2542      N2543   1.322       .  A
N2542      C2546   1.344       .  A
N2543      C2544   1.345       .  A
C2544      C2545   1.383       .  A
C2544      H2547   1.082       .  S
C2545      C2546   1.381       .  A
C2545      C2833   1.473       .  S
C2546      H2548   1.083       .  S
N2549      N2550   1.322       .  A
N2549      C2553   1.347       .  A
N2549     Cu2557   2.082       .  S
N2550      C2551   1.342       .  A
N2550     Cu2556   2.058       .  S
C2551      C2552   1.379       .  A
C2551      H2554   1.082       .  S
C2552      C2553   1.385       .  A
C2552      C2586   1.467       .  S
C2553      H2555   1.082       .  S
Cu2556     N2559   2.058       .  S
Cu2557     N2567   2.082       .  S
Cu2558     N2560   2.076   1_655  S
Cu2558     N2566   2.077       .  S
N2559      N2560   1.321   1_655  A
N2559      C2563   1.343   1_655  A
C2561      C2562   1.385       .  A
C2561      H2564   1.083       .  S
C2563      H2565   1.081       .  S
N2566      N2567   1.323       .  A
N2566      C2570   1.344       .  A
N2567      C2568   1.346       .  A
C2568      C2569   1.385       .  A
C2568      H2571   1.082       .  S
C2569      C2570   1.384       .  A
C2569      C2844   1.480       .  S
C2570      H2572   1.081       .  S
O2573     Cu2581   1.998       .  S
O2573      C2583   1.276       .  A
O2574     Cu2581   2.002       .  S
O2574      C2584   1.278       .  A
O2575     Cu2581   2.004       .  S
O2575      C2585   1.277       .  A
O2576     Cu2581   2.003       .  S
O2576      C2586   1.276       .  A
O2577     Cu2582   2.011       .  S
O2577      C2586   1.279       .  A
O2578     Cu2582   2.007       .  S
O2578      C2585   1.277       .  A
O2579     Cu2582   1.995       .  S
O2579      C2584   1.275       .  A
O2580     Cu2582   1.994       .  S
O2580      C2583   1.276       .  A
Cu2581    Cu2582   2.379       .  S
C2583      C2614   1.458       .  S
N2587      N2588   1.321       .  A
N2587      C2591   1.345       .  A
N2587     Cu2595   2.066       .  S
N2588      C2589   1.340       .  A
N2588     Cu2594   2.049       .  S
C2589      C2590   1.378       .  A
C2589      H2592   1.081       .  S
C2590      C2591   1.383       .  A
C2590      C2707   1.460       .  S
Cu2594     N2597   2.049       .  S
Cu2595     N2605   2.067       .  S
Cu2596     N2598   2.066       .  S
Cu2596     N2604   2.067       .  S
N2597      N2598   1.321       .  A
N2597      C2601   1.340       .  A
C2599      C2600   1.382       .  A
C2599      H2602   1.083       .  S
C2601      H2603   1.082       .  S
N2604      N2605   1.322       .  A
N2604      C2608   1.343       .  A
N2605      C2606   1.343       .  A
C2606      C2607   1.383       .  A
C2606      H2609   1.079       .  S
C2607      C2608   1.382       .  A
C2607      C2813   1.475       .  S
C2608      H2610   1.084       .  S
N2611      N2612   1.320       .  A
N2611     Cu2619   2.060       .  S
N2612      C2613   1.340       .  A
N2612     Cu2618   2.048       .  S
C2613      H2616   1.082       .  S
C2614      C2615   1.381       .  A
C2615      H2617   1.083       .  S
Cu2618     N2621   2.048       .  S
Cu2619     N2629   2.061       .  S
Cu2620     N2628   2.068       .  S
N2622      C2623   1.345       .  A
C2623      C2624   1.383       .  A
C2623      H2626   1.082       .  S
C2624      C2625   1.377       .  A
C2624      C2769   1.459       .  S
C2625      H2627   1.082       .  S
N2628      N2629   1.322       .  A
N2628      C2632   1.342       .  A
N2629      C2630   1.342       .  A
C2630      C2631   1.382       .  A
C2630      H2633   1.080       .  S
C2631      C2632   1.382       .  A
C2631      C2824   1.473       .  S
C2632      H2634   1.084       .  S
O2635     Cu2643   1.998       .  S
O2635      C2645   1.277       .  A
O2636     Cu2643   1.995       .  S
O2636      C2646   1.275       .  A
O2637     Cu2643   2.003       .  S
O2637      C2647   1.276       .  A
O2638     Cu2643   2.005       .  S
O2638      C2648   1.278       .  A
O2639     Cu2644   2.004       .  S
O2639      C2648   1.276       .  A
O2640     Cu2644   2.006       .  S
O2640      C2647   1.277       .  A
O2641     Cu2644   2.001       .  S
O2641      C2646   1.278       .  A
O2642     Cu2644   2.000       .  S
O2642      C2645   1.276       .  A
Cu2643    Cu2644   2.379       .  S
C2647      C2676   1.464       .  S
N2649      N2650   1.322       .  A
N2649      C2653   1.345       .  A
N2649     Cu2657   2.074       .  S
N2650      C2651   1.344       .  A
N2650     Cu2656   2.067       .  S
C2651      C2652   1.381       .  A
C2651      H2654   1.081       .  S
C2652      C2653   1.382       .  A
C2652      C2709   1.466       .  S
C2653      H2655   1.082       .  S
Cu2656     N2659   2.067       .  S
Cu2657     N2667   2.075       .  S
Cu2658     N2660   2.072       .  S
Cu2658     N2666   2.072       .  S
N2659      N2660   1.322       .  A
N2659      C2663   1.344       .  A
N2660      C2661   1.345       .  A
C2661      C2662   1.383       .  A
C2661      H2664   1.082       .  S
C2662      C2663   1.382       .  A
C2663      H2665   1.081       .  S
N2666      N2667   1.322       .  A
N2666      C2670   1.344       .  A
N2667      C2668   1.345       .  A
C2668      C2669   1.384       .  A
C2668      H2671   1.082       .  S
C2669      C2670   1.382       .  A
C2669      C2793   1.476       .  S
C2670      H2672   1.083       .  S
N2673      N2674   1.322       .  A
N2673      C2677   1.345       .  A
N2673     Cu2681   2.073       .  S
N2674      C2675   1.343       .  A
N2674     Cu2680   2.062       .  S
C2675      C2676   1.380       .  A
C2675      H2678   1.082       .  S
C2676      C2677   1.383       .  A
C2677      H2679   1.082       .  S
Cu2680     N2683   2.062       .  S
Cu2681     N2691   2.074       .  S
Cu2682     N2684   2.060       .  S
Cu2682     N2690   2.061       .  S
N2683      N2684   1.321       .  A
N2683      C2687   1.342       .  A
N2684      C2685   1.344   1_565  A
C2685      C2686   1.381       .  A
C2685      H2688   1.082       .  S
C2686      C2687   1.381   1_545  A
C2687      H2689   1.082       .  S
N2690      N2691   1.322       .  A
N2690      C2694   1.342       .  A
N2691      C2692   1.345       .  A
C2692      C2693   1.385       .  A
C2692      H2695   1.082       .  S
C2693      C2694   1.382       .  A
C2693      C2804   1.476       .  S
C2694      H2696   1.081       .  S
O2697      C2707   1.276       .  A
O2698     Cu2705   2.004       .  S
O2698      C2708   1.278       .  A
O2699     Cu2705   2.008       .  S
O2699      C2709   1.278       .  A
O2700     Cu2705   2.002   1_545  S
O2701     Cu2706   2.006       .  S
O2701      C2710   1.278       .  A
O2702     Cu2706   2.004       .  S
O2703     Cu2706   1.997       .  S
O2704     Cu2706   1.997       .  S
O2704      C2707   1.277       .  A
C2710      C2714   1.464       .  S
N2711      N2712   1.322       .  A
N2711      C2715   1.345       .  A
N2711     Cu2719   2.073       .  S
N2712      C2713   1.342       .  A
N2712     Cu2718   2.060       .  S
C2713      C2714   1.379       .  A
C2713      H2716   1.082       .  S
C2714      C2715   1.383       .  A
C2715      H2717   1.082       .  S
Cu2718     N2721   2.060       .  S
Cu2719     N2729   2.073       .  S
Cu2720     N2722   2.071       .  S
Cu2720     N2728   2.071       .  S
N2721      N2722   1.321       .  A
N2721      C2725   1.343       .  A
N2722      C2723   1.345       .  A
C2723      C2724   1.384       .  A
C2723      H2726   1.082       .  S
C2724      C2725   1.381       .  A
C2725      H2727   1.082       .  S
N2728      N2729   1.322       .  A
N2728      C2732   1.343       .  A
N2729      C2730   1.346       .  A
C2730      C2731   1.383       .  A
C2730      H2733   1.081       .  S
C2731      C2732   1.383       .  A
C2731      C2773   1.476       .  S
C2732      H2734   1.082       .  S
N2735      N2736   1.322       .  A
N2735      C2739   1.345       .  A
N2735     Cu2743   2.077       .  S
N2736      C2737   1.343       .  A
N2736     Cu2742   2.060       .  S
C2737      C2738   1.379       .  A
C2737      H2740   1.082       .  S
C2738      C2739   1.384       .  A
C2738      C2772   1.465       .  S
C2739      H2741   1.082       .  S
Cu2742     N2745   2.060       .  S
Cu2743     N2753   2.078       .  S
Cu2744     N2746   2.066       .  S
Cu2744     N2752   2.066       .  S
N2745      N2746   1.320       .  A
N2745      C2749   1.343       .  A
N2746      C2747   1.345       .  A
C2747      C2748   1.383       .  A
C2747      H2750   1.082       .  S
C2748      C2749   1.381       .  A
C2749      H2751   1.082       .  S
N2752      N2753   1.323       .  A
N2752      C2756   1.342       .  A
N2753      C2754   1.346       .  A
C2754      C2755   1.384       .  A
C2754      H2757   1.081       .  S
C2755      C2756   1.379       .  A
C2755      C2784   1.472       .  S
C2756      H2758   1.083       .  S
O2759     Cu2767   1.992       .  S
O2759      C2769   1.276       .  A
O2760     Cu2767   1.992       .  S
O2760      C2770   1.274       .  A
O2761     Cu2767   2.009       .  S
O2761      C2771   1.278       .  A
O2762     Cu2767   2.014       .  S
O2762      C2772   1.279       .  A
O2763     Cu2768   1.996       .  S
O2763      C2772   1.275       .  A
O2764     Cu2768   2.001       .  S
O2764      C2771   1.277       .  A
O2765     Cu2768   2.001       .  S
O2765      C2770   1.278       .  A
O2766     Cu2768   2.000       .  S
O2766      C2769   1.276       .  A
Cu2767    Cu2768   2.379       .  S
C2773      C2774   1.412       .  A
C2773      C2778   1.404       .  A
C2774      C2775   1.397       .  A
C2774     Br2790   1.920       .  S
C2775      C2776   1.400       .  A
C2775      H2779   1.085       .  S
C2776      C2777   1.407       .  A
C2776      C2780   1.474       .  S
C2777      C2778   1.399       .  A
C2777     Br2789   1.919       .  S
C2778      H2781   1.084       .  S
C2780      C2782   1.402       .  A
C2780      C2786   1.407       .  A
C2782      C2783   1.399       .  A
C2782      H2787   1.084       .  S
C2783      C2784   1.410       .  A
C2783     Br2791   1.919       .  S
C2784      C2785   1.403       .  A
C2785      C2786   1.397       .  A
C2785      H2788   1.084       .  S
C2786     Br2792   1.919       .  S
C2793      C2794   1.412       .  A
C2793      C2798   1.404       .  A
C2794      C2795   1.399       .  A
C2794     Br2810   1.919       .  S
C2795      C2796   1.400       .  A
C2795      H2799   1.083       .  S
C2796      C2797   1.405       .  A
C2796      C2800   1.472       .  S
C2797      C2798   1.398       .  A
C2797     Br2809   1.918       .  S
C2798      H2801   1.083       .  S
C2800      C2802   1.400       .  A
C2800      C2806   1.406       .  A
C2802      C2803   1.398       .  A
C2802      H2807   1.085       .  S
C2803      C2804   1.413       .  A
C2803     Br2811   1.920       .  S
C2804      C2805   1.404       .  A
C2805      C2806   1.397       .  A
C2805      H2808   1.084       .  S
C2806     Br2812   1.918       .  S
C2813      C2814   1.413       .  A
C2813      C2818   1.405       .  A
C2814      C2815   1.396       .  A
C2814     Br2830   1.920       .  S
C2815      C2816   1.398       .  A
C2815      H2819   1.084       .  S
C2816      C2817   1.405       .  A
C2816      C2820   1.468       .  S
C2817      C2818   1.396       .  A
C2818      H2821   1.083       .  S
C2820      C2822   1.399       .  A
C2820      C2826   1.405       .  A
C2822      C2823   1.396       .  A
C2822      H2827   1.084       .  S
C2823      C2824   1.413       .  A
C2823     Br2831   1.920       .  S
C2824      C2825   1.404       .  A
C2825      C2826   1.395       .  A
C2825      H2828   1.084       .  S
C2826     Br2832   1.918       .  S
C2833      C2834   1.409       .  A
C2833      C2838   1.402       .  A
C2834      C2835   1.399       .  A
C2834     Br2850   1.919       .  S
C2835      C2836   1.403       .  A
C2835      H2839   1.083       .  S
C2836      C2837   1.408       .  A
C2836      C2840   1.478       .  S
C2837      C2838   1.398       .  A
C2837     Br2849   1.919       .  S
C2838      H2841   1.083       .  S
C2840      C2842   1.401       .  A
C2840      C2846   1.408       .  A
C2842      C2843   1.398       .  A
C2842      H2847   1.085       .  S
C2843      C2844   1.413       .  A
C2843     Br2851   1.919       .  S
C2844      C2845   1.405       .  A
C2845      C2846   1.400       .  A
C2845      H2848   1.084       .  S
C2846     Br2852   1.919       .  S
C2853      C2854   1.410       .  A
C2853      C2858   1.404       .  A
C2854      C2855   1.397       .  A
C2854     Br2870   1.919       .  S
C2855      C2856   1.400       .  A
C2855      H2859   1.085       .  S
C2856      C2857   1.405       .  A
C2856      C2860   1.469       .  S
C2857      C2858   1.396       .  A
C2857     Br2869   1.919       .  S
C2858      H2861   1.084       .  S
C2860      C2862   1.399       .  A
C2860      C2866   1.405       .  A
C2862      C2863   1.396       .  A
C2862      H2867   1.085       .  S
C2863      C2864   1.412       .  A
C2863     Br2871   1.920       .  S
C2864      C2865   1.404       .  A
C2865      C2866   1.397       .  A
C2865      H2868   1.084       .  S
C2866     Br2872   1.918       .  S
C2873      C2874   1.411       .  A
C2873      C2878   1.404       .  A
C2874      C2875   1.400       .  A
C2874     Br2890   1.919       .  S
C2875      C2876   1.402       .  A
C2875      H2879   1.084       .  S
C2876      C2877   1.405       .  A
C2876      C2880   1.473       .  S
C2877      C2878   1.396       .  A
C2877     Br2889   1.918       .  S
C2878      H2881   1.084       .  S
C2880      C2882   1.401       .  A
C2880      C2886   1.405       .  A
C2882      C2883   1.399       .  A
C2882      H2887   1.082       .  S
C2883      C2884   1.411       .  A
C2883     Br2891   1.919       .  S
C2884      C2885   1.405       .  A
C2885      C2886   1.398       .  A
C2885      H2888   1.083       .  S
C2886     Br2892   1.919       .  S
C2893      C2894   1.413       .  A
C2893      C2898   1.404       .  A
C2894      C2895   1.399       .  A
C2894     Br2910   1.920       .  S
C2895      C2896   1.400       .  A
C2895      H2899   1.084       .  S
C2896      C2897   1.405       .  A
C2896      C2900   1.472       .  S
C2897      C2898   1.396       .  A
C2900      C2906   1.406       .  A
C2902      C2903   1.398       .  A
C2902      H2907   1.084       .  S
C2903     Br2911   1.919   1_556  S
C2904      C2905   1.405       .  A
C2905      C2906   1.399   1_554  A
C2905      H2908   1.083       .  S
C2906     Br2912   1.918       .  S
C2913      C2914   1.414       .  A
C2914      C2915   1.398   1_544  A
C2914     Br2930   1.920   1_545  S
C2915      C2916   1.399   1_565  A
C2915      H2919   1.085       .  S
C2916      C2920   1.472       .  S
C2917      C2918   1.398   1_556  A
C2917     Br2929   1.919       .  S
C2918      H2921   1.084       .  S
C2920      C2926   1.406   1_545  A
C2922      C2923   1.398       .  A
C2922      H2927   1.084       .  S
C2923     Br2931   1.919       .  S
C2924      C2925   1.405       .  A
C2925      C2926   1.397       .  A
C2925      H2928   1.084       .  S
C2926     Br2932   1.919       .  S
C2933      C2934   1.414       .  A
C2933      C2938   1.405       .  A
C2934      C2935   1.398   1_554  A
C2934     Br2950   1.920       .  S
C2935      C2936   1.400       .  A
C2935      H2939   1.084       .  S
C2936      C2937   1.404       .  A
C2936      C2940   1.470       .  S
C2937      C2938   1.395   1_556  A
C2937     Br2949   1.918       .  S
C2938      H2941   1.083       .  S
C2940      C2942   1.401       .  A
C2940      C2946   1.407       .  A
C2942      C2943   1.396       .  A
C2942      H2947   1.085       .  S
C2943      C2944   1.408       .  A
C2943     Br2951   1.919       .  S
C2944      C2945   1.401       .  A
C2945      C2946   1.397       .  A
C2945      H2948   1.085       .  S
C2946     Br2952   1.918       .  S
