geometry optimzed in LAMMPS
_audit_creation_date              2020-11-30 
_audit_creation_method            'lammps2cif' 
_symmetry_space_group_name_H-M    'P1' 
_symmetry_Int_Tables_number       1 
_symmetry_cell_setting            triclinic 
loop_ 
_symmetry_equiv_pos_as_xyz 
  x,y,z 
_cell_length_a                    65.65239938 
_cell_length_b                    65.65898453716152 
_cell_length_c                    33.33648798461076 
_cell_angle_alpha                 90.47172895148056 
_cell_angle_beta                  90.03603552271288 
_cell_angle_gamma                 89.79063702046889 
loop_ 
_atom_site_label 
_atom_site_type_symbol 
_atom_site_fract_x 
_atom_site_fract_y 
_atom_site_fract_z 
_atom_site_charge 
C1          C  0.36078987  0.33119689  0.35290916    -0.02800
C2          C  0.33889657  0.34280813  0.65734342    -0.02800
C3          C  0.33332695  0.17902875  0.37116010    -0.02800
C4          C  0.36535161  0.19681178  0.66273665    -0.02800
C5          C  0.18176930  0.21250325  0.37446090    -0.02800
C6          C  0.21702113  0.17432882  0.65447498    -0.02800
C7          C  0.21623052  0.36214793  0.34429435    -0.02800
C8          C  0.18615453  0.32495936  0.62817048    -0.02800
C9          C  0.86609289  0.71146856  0.37358820    -0.02800
C10         C  0.83688674  0.67459739  0.65442484    -0.02800
C11         C  0.71397677  0.67977175  0.35941257    -0.02800
C12         C  0.68834616  0.70513461  0.65662973    -0.02800
C13         C  0.68212467  0.82623791  0.34204982    -0.02800
C14         C  0.71594944  0.85180412  0.63769408    -0.02800
C15         C  0.82761842  0.86065223  0.34911153    -0.02800
C16         C  0.86743666  0.81970220  0.63109036    -0.02800
In17       In  0.87153215  0.52439675  0.88211452     1.36900
C18         C  0.89488079  0.54686913  0.93014995     0.77200
O19         O  0.87884996  0.49085413  0.89144988    -0.61200
O20         O  0.89245425  0.50557262  0.84249414    -0.52100
C21         C  0.83731319  0.51873214  0.92417915     0.69900
O22         O  0.85421213  0.52315214  0.93980945    -0.47000
C23         C  0.86653295  0.54977570  0.82018594     0.74600
O24         O  0.90045670  0.52981094  0.91626401    -0.58900
O25         O  0.88191293  0.54952910  0.84257193    -0.48900
O26         O  0.87698251  0.55199846  0.92076936    -0.55300
C27         C  0.89137413  0.48960588  0.86293326     0.84800
O28         O  0.83791618  0.51641152  0.88647359    -0.57200
O29         O  0.85352823  0.53626696  0.82829600    -0.60500
In30       In  0.00950750  0.66822480  0.12477588     1.36900
C31         C  0.98910030  0.64239519  0.07773857     0.77200
O32         O  0.04274460  0.66143643  0.11272871    -0.61200
O33         O  0.03049630  0.65137970  0.16753248    -0.52100
C34         C  0.01623807  0.70195601  0.08261477     0.69900
O35         O  0.00888286  0.68586847  0.06773462    -0.47000
C36         C  0.98225495  0.67547795  0.18341919     0.74600
O37         O  0.98497622  0.66112746  0.08014211    -0.58900
O38         O  0.99499351  0.68860940  0.17234976    -0.48900
O39         O  0.00431833  0.63695755  0.09822652    -0.55300
C40         C  0.04576188  0.65180226  0.14466829     0.84800
O41         O  0.02037162  0.70083702  0.11959963    -0.57200
O42         O  0.98420988  0.65856086  0.16599239    -0.60500
In43       In  0.87414524  0.01112824  0.12795766     1.36900
C44         C  0.89883567  0.99020018  0.07963837     0.77200
O45         O  0.87989112  0.04455902  0.11680091    -0.61200
O46         O  0.89291920  0.03157433  0.16847380    -0.52100
C47         C  0.83965881  0.01710066  0.08738688     0.69900
O48         O  0.85681196  0.01487322  0.07098459    -0.47000
C49         C  0.86879922  0.98341306  0.18579452     0.74600
O50         O  0.88006705  0.98649856  0.08272321    -0.58900
O51         O  0.85705240  0.99857161  0.18193112    -0.48900
O52         O  0.90483277  0.00530569  0.10004332    -0.55300
C53         C  0.89154094  0.04698911  0.14636317     0.84800
O54         O  0.84007156  0.01670609  0.12530012    -0.57200
O55         O  0.88361699  0.98336619  0.16201623    -0.60500
In56       In  0.00768997  0.86566179  0.88002851     1.36900
C57         C  0.98889709  0.89141673  0.92976358     0.77200
O58         O  0.04175383  0.87041075  0.88541755    -0.61200
O59         O  0.02601735  0.88667260  0.84067950    -0.52100
C60         C  0.01360710  0.83107635  0.92079479     0.69900
O61         O  0.01059716  0.84811379  0.93741721    -0.47000
C62         C  0.98121468  0.85968958  0.81966864     0.74600
O63         O  0.98309010  0.87330787  0.92418854    -0.58900
O64         O  0.99733358  0.84933251  0.82317422    -0.48900
O65         O  0.00470602  0.89619164  0.91057306    -0.55300
C66         C  0.04268429  0.88368336  0.85840958     0.84800
O67         O  0.01394933  0.83169834  0.88295642    -0.57200
O68         O  0.97893537  0.87303333  0.84653030    -0.60500
In69       In  0.53550326  0.66396210  0.87391654     1.36900
C70         C  0.55745898  0.63996584  0.92115669     0.77200
O71         O  0.50381441  0.65386836  0.88894698    -0.61200
O72         O  0.51469294  0.64664257  0.83094421    -0.52100
C73         C  0.52790733  0.69920625  0.91252618     0.69900
O74         O  0.53637137  0.68411332  0.92876754    -0.47000
C75         C  0.56173243  0.66916331  0.81350741     0.74600
O76         O  0.56338975  0.65729961  0.91027379    -0.58900
O77         O  0.54988153  0.68311819  0.82545667    -0.48900
O78         O  0.53987272  0.63525043  0.90918729    -0.55300
C79         C  0.50050757  0.64483166  0.85615296     0.84800
O80         O  0.52302245  0.69624392  0.87628096    -0.57200
O81         O  0.55899371  0.65232403  0.83035680    -0.60500
In82       In  0.67372023  0.52848975  0.13035452     1.36900
C83         C  0.64924719  0.54941608  0.08266668     0.77200
O84         O  0.66575476  0.49632845  0.11249683    -0.61200
O85         O  0.65785746  0.50602085  0.17096007    -0.52100
C86         C  0.70838833  0.52285787  0.08953934     0.69900
O87         O  0.69208654  0.52916524  0.07403381    -0.47000
C88         C  0.67737828  0.55498989  0.19160562     0.74600
O89         O  0.66767679  0.55404307  0.08812767    -0.58900
O90         O  0.69130294  0.54245937  0.18246157    -0.48900
O91         O  0.64336103  0.53392426  0.10151589    -0.55300
C92         C  0.65699687  0.49206647  0.14486076     0.84800
O93         O  0.70710444  0.51926690  0.12668479    -0.57200
O94         O  0.66145997  0.55305439  0.17103899    -0.60500
In95       In  0.53287561  0.86807762  0.10368057     1.36900
C96         C  0.55003060  0.89707339  0.06004326     0.77200
O97         O  0.50041277  0.87791470  0.09141429    -0.61200
O98         O  0.51330385  0.88635179  0.14703792    -0.52100
C99         C  0.52539338  0.83301159  0.06426694     0.69900
O100        O  0.53357198  0.84830647  0.04860565    -0.47000
C101        C  0.56279354  0.85894513  0.15627814     0.74600
O102        O  0.54540199  0.87987181  0.04572495    -0.58900
O103        O  0.54428455  0.85525090  0.16338322    -0.48900
O104        O  0.54507828  0.89969014  0.09627386    -0.55300
C105        C  0.49821462  0.88760985  0.12386284     0.84800
O106        O  0.52077052  0.83554312  0.10079669    -0.57200
O107        O  0.56577346  0.86649025  0.12227460    -0.60500
In108      In  0.67989370  0.00224051  0.87342590     1.36900
C109        C  0.65372534  0.98245749  0.91986325     0.77200
O110        O  0.67803033  0.03648004  0.86396682    -0.61200
O111        O  0.65362680  0.01812010  0.84416622    -0.52100
C112        C  0.71261991  0.01039753  0.91809072     0.69900
O113        O  0.69685687  0.00189639  0.93153051    -0.47000
C114        C  0.68912213  0.97672105  0.81273889     0.74600
O115        O  0.65595501  0.00149117  0.92209528    -0.58900
O116        O  0.67359157  0.98798690  0.81275605    -0.48900
O117        O  0.66562296  0.97368421  0.89564329    -0.55300
C118        C  0.66041246  0.03584786  0.84887801     0.84800
O119        O  0.71155314  0.01521747  0.88144834    -0.57200
O120        O  0.70077876  0.97969164  0.84220067    -0.60500
In121      In  0.51470777  0.36476265  0.12892508     1.36900
C122        C  0.49121016  0.38906238  0.08518336     0.77200
O123        O  0.49528849  0.34354426  0.16637273    -0.61200
O124        O  0.49687113  0.37436843  0.18398893    -0.52100
C125        C  0.52305141  0.33051073  0.08805563     0.69900
O126        O  0.50784568  0.34177427  0.08146563    -0.47000
C127        C  0.55011651  0.38459235  0.13785394     0.74600
O128        O  0.49892252  0.37285172  0.07159653    -0.58900
O129        O  0.54245375  0.37419458  0.16572855    -0.48900
O130        O  0.49587138  0.39306913  0.12100754    -0.55300
C131        C  0.48863211  0.35736467  0.18937071     0.84800
O132        O  0.53401202  0.33634243  0.11725695    -0.57200
O133        O  0.53999825  0.38419593  0.10580856    -0.60500
In134      In  0.37390678  0.50021214  0.87603004     1.36900
C135        C  0.39859085  0.47669305  0.91881918     0.77200
O136        O  0.35598327  0.47346803  0.85316588    -0.61200
O137        O  0.37909486  0.48492810  0.81548874    -0.52100
C138        C  0.33893961  0.51140659  0.91114016     0.69900
O139        O  0.35504799  0.50736119  0.93002828    -0.47000
C140        C  0.39477351  0.53492583  0.86477054     0.74600
O141        O  0.38126801  0.48224840  0.93091957    -0.58900
O142        O  0.38352969  0.52736312  0.83772364    -0.48900
O143        O  0.40318654  0.48293171  0.88437832    -0.55300
C144        C  0.36582921  0.47136310  0.82099091     0.84800
O145        O  0.34086275  0.51085635  0.87337706    -0.57200
O146        O  0.39434514  0.52530576  0.89718663    -0.60500
In147      In  0.52192257  0.16601842  0.88711377     1.36900
C148        C  0.50310987  0.13812876  0.93136586     0.77200
O149        O  0.48887313  0.17215161  0.87350732    -0.61200
O150        O  0.50935485  0.17201472  0.82452992    -0.52100
C151        C  0.53173014  0.20183037  0.92223699     0.69900
O152        O  0.53156525  0.18507452  0.94017526    -0.47000
C153        C  0.55644368  0.14662286  0.86522951     0.74600
O154        O  0.50733661  0.15568794  0.94421808    -0.58900
O155        O  0.54241009  0.15074623  0.84080732    -0.48900
O156        O  0.50895146  0.13460290  0.89597927    -0.55300
C157        C  0.49104686  0.17349193  0.83603128     0.84800
O158        O  0.52766237  0.20033432  0.88527993    -0.57200
O159        O  0.55335460  0.15349685  0.90000927    -0.60500
In160      In  0.37340031  0.03368943  0.12080764     1.36900
C161        C  0.40281962  0.05352822  0.08303519     0.77200
O162        O  0.36908595  0.06619473  0.13967150    -0.61200
O163        O  0.36405755  0.04367060  0.18369867    -0.52100
C164        C  0.33813692  0.02635056  0.08249495     0.69900
O165        O  0.35498714  0.02838989  0.06509054    -0.47000
C166        C  0.39195098  0.99762590  0.13282083     0.74600
O167        O  0.38508240  0.05156417  0.06904720    -0.58900
O168        O  0.38861234  0.01008381  0.16112912    -0.48900
O169        O  0.40557684  0.04522547  0.11661347    -0.55300
C170        C  0.36460356  0.06246941  0.17557653     0.84800
O171        O  0.33922060  0.02753762  0.12027465    -0.57200
O172        O  0.38468263  0.00313903  0.09973598    -0.60500
In173      In  0.03880250  0.16870809  0.12222915     1.36900
C174        C  0.05590367  0.13661870  0.08631276     0.77200
O175        O  0.07122488  0.17419766  0.14104117    -0.61200
O176        O  0.04848107  0.17846182  0.18526250    -0.52100
C177        C  0.03501486  0.20347913  0.08077992     0.69900
O178        O  0.04455905  0.18802333  0.06840038    -0.47000
C179        C  0.00217262  0.15160643  0.13601464     0.74600
O180        O  0.04723917  0.15073252  0.06737874    -0.58900
O181        O  0.01520729  0.15439061  0.16331624    -0.48900
O182        O  0.05526069  0.13858797  0.12392725    -0.55300
C183        C  0.06731956  0.17836553  0.17717897     0.84800
O184        O  0.02742172  0.20143258  0.11536618    -0.57200
O185        O  0.00740936  0.15866466  0.10264449    -0.60500
In186      In  0.17191555  0.02376012  0.88132780     1.36900
C187        C  0.14471259  0.04061566  0.93048133     0.77200
O188        O  0.16769484  0.05599437  0.86040116    -0.61200
O189        O  0.18506597  0.03625049  0.82335034    -0.52100
C190        C  0.20787691  0.01947390  0.91906231     0.69900
O191        O  0.19087368  0.01893517  0.93637039    -0.47000
C192        C  0.15399708  0.98809016  0.86106005     0.74600
O193        O  0.16331294  0.03891005  0.93915759    -0.58900
O194        O  0.15441010  0.00312680  0.83789427    -0.48900
O195        O  0.13992915  0.03345439  0.89652967    -0.55300
C196        C  0.17783223  0.05395516  0.82861066     0.84800
O197        O  0.20666943  0.02119956  0.88138780    -0.57200
O198        O  0.16435725  0.99066798  0.89240399    -0.60500
In199      In  0.17306291  0.51152587  0.11156912     1.36900
C200        C  0.14611492  0.49399268  0.06336353     0.77200
O201        O  0.16674726  0.48024402  0.13574397    -0.61200
O202        O  0.18764089  0.49866272  0.16784415    -0.52100
C203        C  0.20820204  0.51636670  0.07157850     0.69900
O204        O  0.19094812  0.51952339  0.05636394    -0.47000
C205        C  0.15633988  0.54749962  0.13403897     0.74600
O206        O  0.16499935  0.49358398  0.05667708    -0.58900
O207        O  0.15765967  0.53263095  0.15754857    -0.48900
O208        O  0.14097214  0.50371031  0.09457549    -0.55300
C209        C  0.17867854  0.48166675  0.16516238     0.84800
O210        O  0.20763352  0.51156454  0.10817794    -0.57200
O211        O  0.16510155  0.54446834  0.10103013    -0.60500
In212      In  0.03971315  0.36645868  0.87316233     1.36900
C213        C  0.05788864  0.39720058  0.91055472     0.77200
O214        O  0.07227923  0.36189469  0.85428070    -0.61200
O215        O  0.04971856  0.35687659  0.81012893    -0.52100
C216        C  0.03436029  0.33157220  0.91365740     0.69900
O217        O  0.04243159  0.34730977  0.92811711    -0.47000
C218        C  0.00353266  0.38517473  0.86165758     0.74600
O219        O  0.05279082  0.38103205  0.92790759    -0.58900
O220        O  0.01485379  0.37987245  0.83280516    -0.48900
O221        O  0.05348281  0.39778367  0.87370266    -0.55300
C222        C  0.06852000  0.35743010  0.81826261     0.84800
O223        O  0.02871914  0.33346713  0.87761066    -0.57200
O224        O  0.01020620  0.37981496  0.89530590    -0.60500
C225        C  0.09817348  0.46767033  0.02925114    -0.11200
C226        C  0.10469349  0.45831919  0.99345360     0.05900
C227        C  0.12447193  0.46198986  0.97935988    -0.10000
C228        C  0.13779288  0.47417040  0.00154393    -0.11600
C229        C  0.13145172  0.48303509  0.03792392    -0.01400
C230        C  0.11141858  0.48005050  0.05120221    -0.10500
C231        C  0.09144267  0.44365554  0.97226695     0.06000
H232        H  0.12988201  0.45476524  0.95203162     0.07900
H233        H  0.15319741  0.47624236  0.99074571     0.11300
H234        H  0.10621383  0.48669986  0.07923164     0.11600
H235        H  0.08293324  0.46512214  0.04051955     0.07900
C236        C  0.08182551  0.42812583  0.99376068    -0.11200
C237        C  0.07058733  0.41323590  0.97364682    -0.10500
C238        C  0.06860130  0.41373960  0.93173157    -0.01400
C239        C  0.07771329  0.42959841  0.91030472    -0.11600
C240        C  0.08918588  0.44437641  0.93041486    -0.10000
H241        H  0.08355567  0.42713498  0.02600423     0.07900
H242        H  0.06369702  0.40115447  0.99084603     0.11600
H243        H  0.07639991  0.43027954  0.87796067     0.11300
H244        H  0.09641982  0.45628901  0.91330884     0.07900
C245        C  0.02231345  0.25746851  0.04756646    -0.11200
C246        C  0.03046597  0.25773650  0.00846853     0.05900
C247        C  0.03966179  0.23990599  0.99338958    -0.10000
C248        C  0.04100960  0.22240002  0.01695216    -0.11600
C249        C  0.03307028  0.22217231  0.05614958    -0.01400
C250        C  0.02351397  0.23984680  0.07108217    -0.10500
C251        C  0.03025734  0.27673794  0.98412758     0.06000
H252        H  0.04630935  0.23964740  0.96366670     0.07900
H253        H  0.04843795  0.20902508  0.00448760     0.11300
H254        H  0.01715572  0.24011379  0.10104763     0.11600
H255        H  0.01497408  0.27090945  0.05994164     0.07900
C256        C  0.02584227  0.27623495  0.94273605    -0.11200
C257        C  0.02664110  0.29406753  0.91975658    -0.10500
C258        C  0.03214584  0.31270893  0.93759513    -0.01400
C259        C  0.03634077  0.31320886  0.97898702    -0.11600
C260        C  0.03531569  0.29550506  0.00195706    -0.10000
H261        H  0.02176776  0.26202930  0.92814441     0.07900
H262        H  0.02334288  0.29320447  0.88795847     0.11600
H263        H  0.04064415  0.32732757  0.99367121     0.11300
H264        H  0.03905813  0.29640796  0.03356271     0.07900
C265        C  0.07679207  0.10270800  0.00408908    -0.11200
C266        C  0.08982557  0.08968943  0.02550484     0.05900
C267        C  0.09070269  0.09152842  0.06754069    -0.10000
C268        C  0.07915410  0.10637887  0.08756168    -0.11600
C269        C  0.06658838  0.11969623  0.06590022    -0.01400
C270        C  0.06530962  0.11754853  0.02407517    -0.10500
C271        C  0.10324793  0.07513420  0.00364398     0.06000
H272        H  0.10043892  0.08159618  0.08491971     0.07900
H273        H  0.08044147  0.10776820  0.11985791     0.11300
H274        H  0.05577504  0.12766521  0.00665655     0.11600
H275        H  0.07600448  0.10193920  0.97167261     0.07900
C276        C  0.09625968  0.06491915  0.96905237    -0.11200
C277        C  0.10956224  0.05302791  0.94595154    -0.10500
C278        C  0.13007415  0.05106762  0.95710734    -0.01400
C279        C  0.13685726  0.06043321  0.99266055    -0.11600
C280        C  0.12359745  0.07239920  0.01564896    -0.10000
H281        H  0.08057567  0.06642247  0.95943229     0.07900
H282        H  0.10392979  0.04582799  0.91880662     0.11600
H283        H  0.15262073  0.05914584  0.00193927     0.11300
H284        H  0.12953528  0.08022062  0.04184584     0.07900
C285        C  0.30170727  0.01709289  0.99603623    -0.11200
C286        C  0.28256812  0.02087475  0.01361203     0.05900
C287        C  0.28188824  0.02548032  0.05504279    -0.10000
C288        C  0.29983427  0.02660151  0.07789819    -0.11600
C289        C  0.31889572  0.02339946  0.05980219    -0.01400
C290        C  0.31959198  0.01845937  0.01873844    -0.10500
C291        C  0.26352417  0.02010486  0.98874675     0.06000
H292        H  0.26753422  0.02875330  0.06971546     0.07900
H293        H  0.29883792  0.03057460  0.10943714     0.11300
H294        H  0.33405741  0.01575403  0.00398842     0.11600
H295        H  0.30293298  0.01300078  0.96461781     0.07900
C296        C  0.26354089  0.02622741  0.94823443    -0.11200
C297        C  0.24568261  0.02545708  0.92504537    -0.10500
C298        C  0.22730529  0.01881326  0.94192813    -0.01400
C299        C  0.22724695  0.01272388  0.98225116    -0.11600
C300        C  0.24509269  0.01322764  0.00524483    -0.10000
H301        H  0.27726798  0.03202226  0.93454651     0.07900
H302        H  0.24613230  0.03056348  0.89425186     0.11600
H303        H  0.21330857  0.00754788  0.99614959     0.11300
H304        H  0.24442236  0.00803882  0.03593697     0.07900
C305        C  0.46883130  0.09423805  0.95805463    -0.11200
C306        C  0.46483499  0.09827243  0.99878205     0.05900
C307        C  0.47496409  0.11445023  0.01793305    -0.10000
C308        C  0.48804215  0.12698504  0.99626414    -0.11600
C309        C  0.49139698  0.12342280  0.95519655    -0.01400
C310        C  0.48210066  0.10663170  0.93650508    -0.10500
C311        C  0.44922089  0.08644942  0.02050360     0.06000
H312        H  0.47208219  0.11795108  0.04922403     0.07900
H313        H  0.49509840  0.13980847  0.01138110     0.11300
H314        H  0.48445355  0.10355757  0.90487109     0.11600
H315        H  0.46140336  0.08169347  0.94273000     0.07900
C316        C  0.43037856  0.08239005  0.00221300    -0.11200
C317        C  0.41532731  0.07174705  0.02270032    -0.10500
C318        C  0.41885742  0.06479178  0.06178968    -0.01400
C319        C  0.43766665  0.06884680  0.08024029    -0.11600
C320        C  0.45269960  0.07968853  0.05982314    -0.10000
H321        H  0.42715321  0.08776547  0.97223789     0.07900
H322        H  0.40091067  0.06893903  0.00788192     0.11600
H323        H  0.44070934  0.06372957  0.11046645     0.11300
H324        H  0.46710368  0.08262806  0.07457765     0.07900
C325        C  0.28233772  0.51472804  0.93488778    -0.11200
C326        C  0.28261261  0.51836084  0.97668097     0.05900
C327        C  0.30158514  0.52138131  0.99542480    -0.10000
C328        C  0.31971113  0.51975330  0.97368406    -0.11600
C329        C  0.31946499  0.51547303  0.93235978    -0.01400
C330        C  0.30057815  0.51339508  0.91294045    -0.10500
C331        C  0.26345126  0.51826899  0.00111272     0.06000
H332        H  0.30251940  0.52482634  0.02716923     0.07900
H333        H  0.33402563  0.52156256  0.98946672     0.11300
H334        H  0.29993558  0.50991061  0.88115476     0.11600
H335        H  0.26810356  0.51214192  0.91930915     0.07900
C336        C  0.24485864  0.52534237  0.98530087    -0.11200
C337        C  0.22699659  0.52491142  0.00833371    -0.10500
C338        C  0.22728935  0.51760372  0.04788388    -0.01400
C339        C  0.24578749  0.51061547  0.06380522    -0.11600
C340        C  0.26358289  0.51082116  0.04068833    -0.10000
H341        H  0.24409351  0.53139412  0.95523767     0.07900
H342        H  0.21292126  0.53032267  0.99515282     0.11600
H343        H  0.24643694  0.50460439  0.09393467     0.11300
H344        H  0.27738679  0.50471605  0.05372906     0.07900
C345        C  0.54724812  0.28188796  0.04585384    -0.11200
C346        C  0.53420941  0.27741228  0.01330956     0.05900
C347        C  0.51788932  0.29074856  0.00571809    -0.10000
C348        C  0.51451299  0.30786545  0.03000190    -0.11600
C349        C  0.52732266  0.31224419  0.06272771    -0.01400
C350        C  0.54388550  0.29918419  0.07022124    -0.10500
C351        C  0.53662445  0.25843309  0.98852584     0.06000
H352        H  0.50728658  0.28766279  0.98155830     0.07900
H353        H  0.50164239  0.31762213  0.02326351     0.11300
H354        H  0.55411349  0.30224529  0.09502559     0.11600
H355        H  0.56005423  0.27203340  0.05244317     0.07900
C356        C  0.53226476  0.25843265  0.94709103    -0.11200
C357        C  0.53165006  0.24016976  0.92495933    -0.10500
C358        C  0.53535736  0.22144959  0.94370800    -0.01400
C359        C  0.54084866  0.22152983  0.98453857    -0.11600
C360        C  0.54153171  0.23977977  0.00663819    -0.10000
H361        H  0.52880002  0.27254607  0.93192838     0.07900
H362        H  0.52747729  0.24063633  0.89354863     0.11600
H363        H  0.54388215  0.20735783  0.99985920     0.11300
H364        H  0.54484868  0.23912037  0.03841750     0.07900
C365        C  0.41981234  0.44687711  0.00572694    -0.11200
C366        C  0.43866699  0.44026883  0.99045875     0.05900
C367        C  0.44432774  0.44592212  0.95144367    -0.10000
C368        C  0.43129229  0.45776248  0.92804360    -0.11600
C369        C  0.41237894  0.46415597  0.94325807    -0.01400
C370        C  0.40679010  0.45869335  0.98233012    -0.10500
C371        C  0.45219834  0.42720712  0.01488065     0.06000
H372        H  0.45890409  0.44130881  0.93912085     0.07900
H373        H  0.43600195  0.46190145  0.89807521     0.11300
H374        H  0.39230175  0.46349717  0.99479259     0.11600
H375        H  0.41494024  0.44257687  0.03549350     0.07900
C376        C  0.45463662  0.43093615  0.05619126    -0.11200
C377        C  0.46735198  0.41852841  0.07911562    -0.10500
C378        C  0.47779480  0.40215824  0.06115104    -0.01400
C379        C  0.47523249  0.39828848  0.02001579    -0.11600
C380        C  0.46259572  0.41072742  0.99706798    -0.10000
H381        H  0.44693137  0.44361211  0.07067775     0.07900
H382        H  0.46900768  0.42173323  0.11087245     0.11600
H383        H  0.48304471  0.38566982  0.00553539     0.11300
H384        H  0.46073322  0.40726829  0.96546668     0.07900
C385        C  0.61461623  0.06843796  0.82432117    -0.11200
C386        C  0.62094905  0.08787361  0.83717266     0.05900
C387        C  0.64136491  0.09040348  0.84923537    -0.10000
C388        C  0.65470301  0.07369591  0.85076900    -0.11600
C389        C  0.64791186  0.05412100  0.84021108    -0.01400
C390        C  0.62793826  0.05179935  0.82575166    -0.10500
C391        C  0.60582956  0.10483370  0.84128198     0.06000
H392        H  0.64688151  0.10521348  0.85860449     0.07900
H393        H  0.67003528  0.07594898  0.86190442     0.11300
H394        H  0.62224330  0.03688991  0.81742127     0.11600
H395        H  0.59900753  0.06579149  0.81524237     0.07900
C396        C  0.58969851  0.10698546  0.81374831    -0.11200
C397        C  0.57417713  0.12132850  0.82044360    -0.10500
C398        C  0.57434041  0.13375772  0.85493960    -0.01400
C399        C  0.59084218  0.13223411  0.88159967    -0.11600
C400        C  0.60643172  0.11801164  0.87478865    -0.10000
H401        H  0.58884625  0.09729662  0.78737349     0.07900
H402        H  0.56160283  0.12209967  0.79945865     0.11600
H403        H  0.59135703  0.14158884  0.90848514     0.11300
H404        H  0.61842116  0.11666797  0.89693003     0.07900
C405        C  0.44593729  0.91172032  0.11455194    -0.11200
C406        C  0.44743184  0.92858545  0.14081258     0.05900
C407        C  0.46502950  0.93034587  0.16479642    -0.10000
C408        C  0.48107962  0.91630462  0.16094856    -0.11600
C409        C  0.48003372  0.90033934  0.13269927    -0.01400
C410        C  0.46211626  0.89792741  0.11022284    -0.10500
C411        C  0.43161769  0.94510485  0.14042168     0.06000
H412        H  0.46691410  0.94315473  0.18508220     0.07900
H413        H  0.49476633  0.91859137  0.17855177     0.11300
H414        H  0.46080727  0.88564156  0.08850480     0.11600
H415        H  0.43244274  0.90944626  0.09641577     0.07900
C416        C  0.42204388  0.95042973  0.10417902    -0.11200
C417        C  0.40854954  0.96690292  0.10242751    -0.10500
C418        C  0.40429967  0.97872819  0.13673641    -0.01400
C419        C  0.41335281  0.97321520  0.17331097    -0.11600
C420        C  0.42682119  0.95655037  0.17516983    -0.10000
H421        H  0.42558343  0.94240796  0.07655412     0.07900
H422        H  0.40198086  0.97082414  0.07368588     0.11600
H423        H  0.41040692  0.98206639  0.20025007     0.11300
H424        H  0.43365711  0.95280370  0.20373604     0.07900
C425        C  0.57986583  0.92166811  0.97684548    -0.11200
C426        C  0.58916293  0.93800037  0.99734875     0.05900
C427        C  0.58347752  0.94207553  0.03724611    -0.10000
C428        C  0.56976035  0.92938507  0.05692630    -0.11600
C429        C  0.56156706  0.91231310  0.03720096    -0.01400
C430        C  0.56628262  0.90887905  0.99664848    -0.10500
C431        C  0.60580608  0.94970113  0.97819798     0.06000
H432        H  0.59042144  0.95443138  0.05397067     0.07900
H433        H  0.56637730  0.93235444  0.08822956     0.11300
H434        H  0.56003355  0.89590673  0.98064139     0.11600
H435        H  0.58352944  0.91843082  0.94576872     0.07900
C436        C  0.62016315  0.93954489  0.95395213    -0.11200
C437        C  0.63601988  0.95019656  0.93610200    -0.10500
C438        C  0.63796652  0.97126723  0.94206862    -0.01400
C439        C  0.62393187  0.98148431  0.96692611    -0.11600
C440        C  0.60797591  0.97078285  0.98486993    -0.10000
H441        H  0.61928196  0.92325298  0.94902153     0.07900
H442        H  0.64663315  0.94192409  0.91711696     0.11600
H443        H  0.62505079  0.99776926  0.97183200     0.11300
H444        H  0.59713266  0.97906168  0.00330631     0.07900
C445        C  0.61697278  0.45510085  0.18050882    -0.11200
C446        C  0.61880636  0.43923945  0.15212315     0.05900
C447        C  0.63487916  0.43989413  0.12427849    -0.10000
C448        C  0.64804044  0.45660910  0.12330362    -0.11600
C449        C  0.64549338  0.47295079  0.15032276    -0.01400
C450        C  0.63020807  0.47177357  0.17965571    -0.10500
C451        C  0.60273170  0.42336950  0.14879944     0.06000
H452        H  0.63682807  0.42778102  0.10235274     0.07900
H453        H  0.65976281  0.45708845  0.10048651     0.11300
H454        H  0.62777121  0.48425684  0.20056345     0.11600
H455        H  0.60460129  0.45517226  0.20197452     0.07900
C456        C  0.59431798  0.41426498  0.18307232    -0.11200
C457        C  0.57767561  0.40098232  0.17963696    -0.10500
C458        C  0.56899699  0.39678576  0.14192129    -0.01400
C459        C  0.57778479  0.40546422  0.10767946    -0.11600
C460        C  0.59449641  0.41847835  0.11104012    -0.10000
H461        H  0.60041017  0.41768781  0.21254650     0.07900
H462        H  0.57119205  0.39453892  0.20654009     0.11600
H463        H  0.57143587  0.40254907  0.07820258     0.11300
H464        H  0.60041352  0.42543916  0.08413061     0.07900
C465        C  0.45043086  0.61871996  0.87632353    -0.11200
C466        C  0.45028082  0.60311299  0.84722184     0.05900
C467        C  0.46552115  0.60300644  0.81752999    -0.10000
C468        C  0.48134109  0.61739257  0.81873624    -0.11600
C469        C  0.48212664  0.63212782  0.84959878    -0.01400
C470        C  0.46614093  0.63301234  0.87751958    -0.10500
C471        C  0.43547748  0.58603612  0.85077432     0.06000
H472        H  0.46584005  0.59112921  0.79480301     0.07900
H473        H  0.49350361  0.61629687  0.79688739     0.11300
H474        H  0.46621480  0.64427725  0.90143768     0.11600
H475        H  0.43871987  0.61941455  0.89916707     0.07900
C476        C  0.43242317  0.57696632  0.88831028    -0.11200
C477        C  0.41897934  0.56069201  0.89259820    -0.10500
C478        C  0.40803115  0.55304546  0.85953282    -0.01400
C479        C  0.41092177  0.56212836  0.82188011    -0.11600
C480        C  0.42464070  0.57839693  0.81747568    -0.10000
H481        H  0.44079510  0.58223136  0.91439227     0.07900
H482        H  0.41731899  0.55393663  0.92194070     0.11600
H483        H  0.40284442  0.55644831  0.79579032     0.11300
H484        H  0.42669819  0.58508076  0.78818143     0.07900
C485        C  0.52528524  0.73842608  0.99663995    -0.11200
C486        C  0.52001236  0.75636761  0.97619814     0.05900
C487        C  0.51648511  0.75504983  0.93450962    -0.10000
C488        C  0.51862758  0.73644856  0.91385451    -0.11600
C489        C  0.52439012  0.71872262  0.93432901    -0.01400
C490        C  0.52746801  0.71989502  0.97598971    -0.10500
C491        C  0.51938886  0.77642456  0.99798891     0.06000
H492        H  0.51211374  0.76841483  0.91772702     0.07900
H493        H  0.51612790  0.73601342  0.88174424     0.11300
H494        H  0.53188519  0.70648878  0.99263992     0.11600
H495        H  0.52844500  0.73877278  0.02850269     0.07900
C496        C  0.51303373  0.77782268  0.03835201    -0.11200
C497        C  0.51441339  0.79627389  0.05977858    -0.10500
C498        C  0.52211609  0.81378310  0.04133391    -0.01400
C499        C  0.52763034  0.81262774  0.00062406    -0.11600
C500        C  0.52633163  0.79423273  0.97928581    -0.10000
H501        H  0.50718503  0.76458498  0.05360547     0.07900
H502        H  0.50986432  0.79672626  0.09099403     0.11600
H503        H  0.53352852  0.82587548  0.98542832     0.11300
H504        H  0.53158355  0.79384486  0.94852121     0.07900
C505        C  0.57785079  0.59233806  0.97014837    -0.11200
C506        C  0.59622247  0.59941314  0.98676271     0.05900
C507        C  0.60144276  0.62000321  0.98227670    -0.10000
C508        C  0.58867736  0.63321403  0.96139386    -0.11600
C509        C  0.57036018  0.62615126  0.94480444    -0.01400
C510        C  0.56499677  0.60562042  0.94942578    -0.10500
C511        C  0.60978049  0.58560061  0.00949928     0.06000
H512        H  0.61530692  0.62598600  0.99536531     0.07900
H513        H  0.59314453  0.64898217  0.95824802     0.11300
H514        H  0.55103997  0.59976612  0.93647299     0.11600
H515        H  0.57355211  0.57649780  0.97274608     0.07900
C516        C  0.60162158  0.57147797  0.03650600    -0.11200
C517        C  0.61447995  0.55940519  0.05983173    -0.10500
C518        C  0.63568879  0.56135486  0.05672708    -0.01400
C519        C  0.64387828  0.57516254  0.02926917    -0.11600
C520        C  0.63104497  0.58707420  0.00566122    -0.10000
H521        H  0.58531100  0.57018678  0.04046587     0.07900
H522        H  0.60784062  0.54891505  0.08100498     0.11600
H523        H  0.66021187  0.57677587  0.02610355     0.11300
H524        H  0.63776270  0.59754640  0.98456093     0.07900
C525        C  0.07673516  0.92680844  0.82465922    -0.11200
C526        C  0.09504610  0.92262405  0.84514897     0.05900
C527        C  0.09648127  0.90421174  0.86647612    -0.10000
C528        C  0.07977161  0.89107245  0.86930055    -0.11600
C529        C  0.06126485  0.89580723  0.85037118    -0.01400
C530        C  0.06011272  0.91352131  0.82709193    -0.10500
C531        C  0.11188463  0.93803161  0.84688101     0.06000
H532        H  0.11041772  0.90010132  0.88180442     0.07900
H533        H  0.08116577  0.87747382  0.88728337     0.11300
H534        H  0.04600808  0.91764882  0.81232499     0.11600
H535        H  0.07482253  0.94084974  0.80829145     0.07900
C536        C  0.11571379  0.95130289  0.81469644    -0.11200
C537        C  0.13007233  0.96704673  0.81838851    -0.10500
C538        C  0.14113855  0.96975959  0.85415428    -0.01400
C539        C  0.13799839  0.95598321  0.88554580    -0.11600
C540        C  0.12352773  0.94046321  0.88209371    -0.10000
H541        H  0.10737890  0.94977039  0.78682038     0.07900
H542        H  0.13211349  0.97743230  0.79366266     0.11600
H543        H  0.14606970  0.95777882  0.91368909     0.11300
H544        H  0.12087459  0.93095416  0.90791040     0.07900
C545        C  0.91453391  0.09917670  0.12974447    -0.11200
C546        C  0.93252532  0.09796607  0.15275103     0.05900
C547        C  0.93544031  0.08069380  0.17692003    -0.10000
C548        C  0.92129826  0.06481752  0.17692945    -0.11600
C549        C  0.90400628  0.06555135  0.15226401    -0.01400
C550        C  0.90050864  0.08308832  0.12930524    -0.10500
C551        C  0.94887577  0.11377756  0.14976573     0.06000
H552        H  0.94918726  0.07887780  0.19446326     0.07900
H553        H  0.92454555  0.05139886  0.19453691     0.11300
H554        H  0.88727306  0.08407627  0.10999533     0.11600
H555        H  0.91148457  0.11234933  0.11134590     0.07900
C556        C  0.95298153  0.12345655  0.11309157    -0.11200
C557        C  0.96975755  0.13645608  0.10918239    -0.10500
C558        C  0.98293774  0.14007548  0.14173506    -0.01400
C559        C  0.97841502  0.13112782  0.17876212    -0.11600
C560        C  0.96156688  0.11825017  0.18278548    -0.10000
H561        H  0.94381916  0.12029606  0.08678447     0.07900
H562        H  0.97284797  0.14307867  0.08017795     0.11600
H563        H  0.98823199  0.13364091  0.20443024     0.11300
H564        H  0.95871322  0.11152262  0.21175840     0.07900
C565        C  0.76494808  0.02757792  0.95323707    -0.11200
C566        C  0.76590357  0.01919553  0.99198937     0.05900
C567        C  0.74895612  0.00842706  0.00624048    -0.10000
C568        C  0.73164478  0.00589386  0.98234187    -0.11600
C569        C  0.73082945  0.01395448  0.94346174    -0.01400
C570        C  0.74762175  0.02491138  0.92917014    -0.10500
C571        C  0.78482608  0.02056990  0.01664668     0.06000
H572        H  0.74926049  0.00139898  0.03549641     0.07900
H573        H  0.71899662  0.99725307  0.99410624     0.11300
H574        H  0.74739200  0.03134617  0.89936689     0.11600
H575        H  0.77761532  0.03616879  0.94144329     0.07900
C576        C  0.80402479  0.01872884  0.99833722    -0.11200
C577        C  0.82175577  0.01818975  0.02145910    -0.10500
C578        C  0.82078853  0.01938098  0.06350785    -0.01400
C579        C  0.80171594  0.02182985  0.08197629    -0.11600
C580        C  0.78391169  0.02247473  0.05876751    -0.10000
H581        H  0.80535434  0.01691766  0.96614252     0.07900
H582        H  0.83624439  0.01626849  0.00634821     0.11600
H583        H  0.80053481  0.02290599  0.11432793     0.11300
H584        H  0.76940651  0.02425299  0.07384493     0.07900
C585        C  0.94827544  0.91360083  0.99734079    -0.11200
C586        C  0.95319391  0.93443542  0.99755180     0.05900
C587        C  0.97101011  0.94072822  0.97784673    -0.10000
C588        C  0.98311063  0.92661340  0.95698874    -0.11600
C589        C  0.97757497  0.90597947  0.95534187    -0.01400
C590        C  0.96027849  0.89955674  0.97633692    -0.10500
C591        C  0.93933930  0.94948982  0.01707070     0.06000
H592        H  0.97520153  0.95665292  0.97724760     0.07900
H593        H  0.99640779  0.93195219  0.94106391     0.11300
H594        H  0.95576666  0.88370626  0.97586367     0.11600
H595        H  0.93498448  0.90814019  0.01309624     0.07900
C596        C  0.91810884  0.94687870  0.01490586    -0.11200
C597        C  0.90496095  0.96049490  0.03424121    -0.10500
C598        C  0.91271186  0.97713716  0.05594808    -0.01400
C599        C  0.93386056  0.98018654  0.05723575    -0.11600
C600        C  0.94706546  0.96647294  0.03802192    -0.10000
H601        H  0.91160126  0.93427137  0.99821642     0.07900
H602        H  0.88871261  0.95779940  0.03270417     0.11600
H603        H  0.94022254  0.99284898  0.07400792     0.11300
H604        H  0.96332246  0.96886654  0.04051994     0.07900
C605        C  0.09984559  0.63231601  0.13328168    -0.11200
C606        C  0.09959560  0.61468698  0.15715665     0.05900
C607        C  0.08237108  0.61128818  0.18138065    -0.10000
C608        C  0.06537311  0.62426561  0.17947169    -0.11600
C609        C  0.06506529  0.64076471  0.15292124    -0.01400
C610        C  0.08272170  0.64504562  0.13084754    -0.10500
C611        C  0.11612216  0.59892563  0.15340756     0.06000
H612        H  0.08144531  0.59791116  0.20001466     0.07900
H613        H  0.05196599  0.62059766  0.19685154     0.11300
H614        H  0.08303399  0.65784112  0.11055430     0.11600
H615        H  0.11302248  0.63590204  0.11520981     0.07900
C616        C  0.12536702  0.59522974  0.11593834    -0.11200
C617        C  0.13925771  0.57925496  0.11063766    -0.10500
C618        C  0.14417051  0.56621031  0.14240558    -0.01400
C619        C  0.13551987  0.57012538  0.18028432    -0.11600
C620        C  0.12174137  0.58637993  0.18579587    -0.10000
H621        H  0.12119488  0.60408256  0.08994192     0.07900
H622        H  0.14541706  0.57652119  0.08093674     0.11600
H623        H  0.13899177  0.56031725  0.20535202     0.11300
H624        H  0.11520749  0.58885518  0.21523657     0.07900
C625        C  0.01501465  0.79419307  0.00772813    -0.11200
C626        C  0.02095815  0.77584698  0.98894184     0.05900
C627        C  0.02479149  0.77597722  0.94734380    -0.10000
C628        C  0.02238281  0.79385902  0.92511747    -0.11600
C629        C  0.01634950  0.81209054  0.94401992    -0.01400
C630        C  0.01280025  0.81207555  0.98557949    -0.10500
C631        C  0.02185663  0.75651237  0.01224925     0.06000
H632        H  0.02964917  0.76224090  0.93187287     0.07900
H633        H  0.02529418  0.79343187  0.89315052     0.11300
H634        H  0.00797696  0.82586374  0.00095098     0.11600
H635        H  0.01149003  0.79465800  0.03943643     0.07900
C636        C  0.02808547  0.75640210  0.05274236    -0.11200
C637        C  0.02676595  0.73860357  0.07558601    -0.10500
C638        C  0.01928992  0.72052121  0.05836560    -0.01400
C639        C  0.01393633  0.72040155  0.01756645    -0.11600
C640        C  0.01517820  0.73813440  0.99483173    -0.10000
H641        H  0.03372130  0.77015073  0.06697158     0.07900
H642        H  0.03119846  0.73909635  0.10687576     0.11600
H643        H  0.00820500  0.70667506  0.00337008     0.11300
H644        H  0.01004105  0.73758283  0.96398753     0.07900
C645        C  0.91645385  0.43778880  0.87503722    -0.11200
C646        C  0.93384886  0.43962881  0.85066026     0.05900
C647        C  0.93604527  0.45730552  0.82757525    -0.10000
C648        C  0.92168358  0.47312114  0.83015878    -0.11600
C649        C  0.90476508  0.47163376  0.85583707    -0.01400
C650        C  0.90209190  0.45361455  0.87763194    -0.10500
C651        C  0.95054113  0.42414882  0.85227065     0.06000
H652        H  0.94939067  0.45933013  0.80897553     0.07900
H653        H  0.92430591  0.48690449  0.81333349     0.11300
H654        H  0.88922930  0.45201110  0.89766517     0.11600
H655        H  0.91423661  0.42428455  0.89292335     0.07900
C656        C  0.95726386  0.41692150  0.88955882    -0.11200
C657        C  0.97404103  0.40382381  0.89212749    -0.10500
C658        C  0.98456969  0.39746546  0.85748522    -0.01400
C659        C  0.97757197  0.40419379  0.81994184    -0.11600
C660        C  0.96075417  0.41746734  0.81737256    -0.10000
H661        H  0.94999350  0.42201632  0.91703090     0.07900
H662        H  0.97911418  0.39909538  0.92154200     0.11600
H663        H  0.98538101  0.39959817  0.79271395     0.11300
H664        H  0.95586908  0.42270611  0.78818066     0.07900
C665        C  0.78235156  0.50934182  0.95483155    -0.11200
C666        C  0.78239098  0.51602942  0.99510535     0.05900
C667        C  0.80075992  0.52299436  0.01183653    -0.10000
C668        C  0.81855931  0.52349373  0.98884987    -0.11600
C669        C  0.81846908  0.51709936  0.94848373    -0.01400
C670        C  0.80020057  0.50990724  0.93173747    -0.10500
C671        C  0.76324501  0.51664748  0.01914331     0.06000
H672        H  0.80126785  0.52858643  0.04246939     0.07900
H673        H  0.83235692  0.52929662  0.00253546     0.11300
H674        H  0.79968816  0.50483602  0.90076211     0.11600
H675        H  0.76849034  0.50369757  0.94115738     0.07900
C676        C  0.74498528  0.52345865  0.00173760    -0.11200
C677        C  0.72723661  0.52523004  0.02466183    -0.10500
C678        C  0.72724817  0.52020496  0.06558602    -0.01400
C679        C  0.74536547  0.51304536  0.08297950    -0.11600
C680        C  0.76319390  0.51131059  0.06000127    -0.10000
H681        H  0.74453642  0.52796850  0.97057949     0.07900
H682        H  0.71351757  0.53082659  0.01037394     0.11600
H683        H  0.74579726  0.50896203  0.11437501     0.11300
H684        H  0.77696492  0.50580229  0.07420488     0.07900
C685        C  0.91490888  0.59208387  0.98883617    -0.11200
C686        C  0.93550048  0.58669005  0.99412108     0.05900
C687        C  0.94228554  0.56768540  0.97960111    -0.10000
C688        C  0.92890710  0.55452548  0.95978660    -0.11600
C689        C  0.90848068  0.56010516  0.95390734    -0.01400
C690        C  0.90154466  0.57894002  0.96884254    -0.10500
C691        C  0.94988368  0.60088893  0.01435281     0.06000
H692        H  0.95807929  0.56316569  0.98268221     0.07900
H693        H  0.93467844  0.54014981  0.94828194     0.11300
H694        H  0.88584744  0.58360994  0.96469693     0.11600
H695        H  0.90909720  0.60645298  0.00026297     0.07900
C696        C  0.94853483  0.62198361  0.00787191    -0.11200
C697        C  0.96164946  0.63540350  0.02772978    -0.10500
C698        C  0.97652147  0.62802996  0.05422325    -0.01400
C699        C  0.97827715  0.60694658  0.06000990    -0.11600
C700        C  0.96503424  0.59351020  0.04040545    -0.10000
H701        H  0.93733821  0.62814554  0.98738284     0.07900
H702        H  0.96002620  0.65159796  0.02262485     0.11600
H703        H  0.98949570  0.60088437  0.08058532     0.11300
H704        H  0.96634059  0.57738233  0.04643951     0.07900
C705        C  0.93458758  0.86682059  0.75414888    -0.11200
C706        C  0.93500173  0.84920395  0.72986646     0.05900
C707        C  0.95148193  0.83555270  0.73411691    -0.10000
C708        C  0.96682684  0.83919101  0.76247791    -0.11600
C709        C  0.96595555  0.85644766  0.78751851    -0.01400
C710        C  0.94980392  0.87032691  0.78275170    -0.10500
C711        C  0.91780104  0.84443290  0.70199038     0.06000
H712        H  0.95219759  0.82164038  0.71652725     0.07900
H713        H  0.97904671  0.82819347  0.76562100     0.11300
H714        H  0.94881142  0.88385723  0.80146611     0.11600
H715        H  0.92240099  0.87786308  0.75131054     0.07900
C716        C  0.89755218  0.84901330  0.71277109    -0.11200
C717        C  0.88121585  0.84238108  0.68905318    -0.10500
C718        C  0.88463975  0.83097660  0.65365500    -0.01400
C719        C  0.90501272  0.82717071  0.64223659    -0.11600
C720        C  0.92129685  0.83395506  0.66573336    -0.10000
H721        H  0.89419463  0.85674308  0.74080432     0.07900
H722        H  0.86597143  0.84512804  0.70009564     0.11600
H723        H  0.90829299  0.81822032  0.61556297     0.11300
H724        H  0.93665010  0.83048327  0.65595138     0.07900
C725        C  0.86068757  0.85823106  0.44444005    -0.11200
C726        C  0.84891534  0.84566722  0.46920525     0.05900
C727        C  0.82902064  0.84090458  0.45697446    -0.10000
C728        C  0.82164573  0.84720956  0.41993962    -0.11600
C729        C  0.83338146  0.85952100  0.39422135    -0.01400
C730        C  0.85305237  0.86509184  0.40766163    -0.10500
C731        C  0.85718451  0.83723599  0.50738165     0.06000
H732        H  0.81917671  0.83173224  0.47549256     0.07900
H733        H  0.80700771  0.84137381  0.41050150     0.11300
H734        H  0.86327525  0.87346017  0.38849744     0.11600
H735        H  0.87620683  0.86198984  0.45244922     0.07900
C736        C  0.85055768  0.81824509  0.52133699    -0.11200
C737        C  0.85549495  0.81175327  0.55983460    -0.10500
C738        C  0.86822700  0.82339902  0.58525857    -0.01400
C739        C  0.87623562  0.84167694  0.56961540    -0.11600
C740        C  0.87067491  0.84852504  0.53146954    -0.10000
H741        H  0.84066556  0.80871939  0.50329227     0.07900
H742        H  0.84808635  0.79818915  0.57076829     0.11600
H743        H  0.88527128  0.85181487  0.58805657     0.11300
H744        H  0.87594377  0.86333656  0.52206840     0.07900
C745        C  0.85369543  0.89345684  0.26783409    -0.11200
C746        C  0.85158682  0.91313263  0.28447924     0.05900
C747        C  0.84350071  0.91512397  0.32322942    -0.10000
C748        C  0.83694104  0.89805322  0.34421783    -0.11600
C749        C  0.83852490  0.87827254  0.32759353    -0.01400
C750        C  0.84708950  0.87625769  0.28892272    -0.10500
C751        C  0.85664916  0.93164796  0.26089070     0.06000
H752        H  0.84184018  0.93001031  0.33709346     0.07900
H753        H  0.82996818  0.90035489  0.37334215     0.11300
H754        H  0.84778769  0.86158768  0.27398935     0.11600
H755        H  0.85956526  0.89144744  0.23770756     0.07900
C756        C  0.87436966  0.93240859  0.23738430    -0.11200
C757        C  0.87865012  0.94960379  0.21431465    -0.10500
C758        C  0.86522794  0.96638204  0.21389775    -0.01400
C759        C  0.84771024  0.96581021  0.23793321    -0.11600
C760        C  0.84349019  0.94865644  0.26121666    -0.10000
H761        H  0.88490679  0.91968171  0.23679509     0.07900
H762        H  0.89228149  0.94956024  0.19603429     0.11600
H763        H  0.83700985  0.97840054  0.23796916     0.11300
H764        H  0.82957857  0.94846369  0.27862962     0.07900
C765        C  0.76941993  0.83253828  0.60961459    -0.11200
C766        C  0.78230013  0.84578732  0.63094071     0.05900
C767        C  0.77389068  0.86363473  0.64757894    -0.10000
C768        C  0.75275623  0.86698468  0.64669207    -0.11600
C769        C  0.73942454  0.85213920  0.63034570    -0.01400
C770        C  0.74840799  0.83574871  0.60897889    -0.10500
C771        C  0.80405903  0.84009832  0.63738993     0.06000
H772        H  0.78350590  0.87451242  0.66308625     0.07900
H773        H  0.74711868  0.88078335  0.66060729     0.11300
H774        H  0.73895742  0.82434721  0.59459584     0.11600
H775        H  0.77551729  0.81910853  0.59478575     0.07900
C776        C  0.80910883  0.81978732  0.64560871    -0.11200
C777        C  0.82935846  0.81341590  0.64723099    -0.10500
C778        C  0.84556387  0.82727105  0.64178357    -0.01400
C779        C  0.84029778  0.84802100  0.63641106    -0.11600
C780        C  0.81987154  0.85433011  0.63417742    -0.10000
H781        H  0.79727529  0.80849750  0.64920242     0.07900
H782        H  0.83189699  0.79722467  0.64968742     0.11600
H783        H  0.85206436  0.85920012  0.63127086     0.11300
H784        H  0.81649602  0.87013808  0.62789149     0.07900
C785        C  0.67917137  0.93659132  0.73260372    -0.11200
C786        C  0.69764136  0.92566547  0.73247507     0.05900
C787        C  0.71380223  0.93292381  0.75638476    -0.10000
C788        C  0.71128788  0.94999549  0.78124536    -0.11600
C789        C  0.69263035  0.96044056  0.78247485    -0.01400
C790        C  0.67671165  0.95382844  0.75732338    -0.10500
C791        C  0.70012565  0.90638372  0.70888169     0.06000
H792        H  0.72840306  0.92520332  0.75630768     0.07900
H793        H  0.72383275  0.95476277  0.80018719     0.11300
H794        H  0.66207596  0.96148972  0.75796568     0.11600
H795        H  0.66638982  0.93139004  0.71478082     0.07900
C796        C  0.69217051  0.90409670  0.66990597    -0.11200
C797        C  0.69621341  0.88641989  0.64708534    -0.10500
C798        C  0.70883638  0.87076711  0.66227809    -0.01400
C799        C  0.71535938  0.87271309  0.70256640    -0.11600
C800        C  0.71108851  0.89010074  0.72532307    -0.10000
H801        H  0.68329468  0.91621113  0.65657232     0.07900
H802        H  0.68965353  0.88547905  0.61747703     0.11600
H803        H  0.72458845  0.86094207  0.71616140     0.11300
H804        H  0.71674921  0.89091881  0.75580790     0.07900
C805        C  0.68614135  0.81968295  0.45688945    -0.11200
C806        C  0.68613359  0.83997409  0.47094108     0.05900
C807        C  0.68178129  0.85541363  0.44320082    -0.10000
C808        C  0.67854206  0.85069617  0.40246258    -0.11600
C809        C  0.67939111  0.83036020  0.38793793    -0.01400
C810        C  0.68273109  0.81495483  0.41655548    -0.10500
C811        C  0.69168793  0.84457939  0.51384219     0.06000
H812        H  0.68142144  0.87121380  0.45267410     0.07900
H813        H  0.67657332  0.86311634  0.38162668     0.11300
H814        H  0.68466890  0.79919716  0.40788798     0.11600
H815        H  0.69010836  0.80724317  0.47650920     0.07900
C816        C  0.68750665  0.83022534  0.54350050    -0.11200
C817        C  0.69523162  0.83233108  0.58215182    -0.10500
C818        C  0.70599656  0.84993640  0.59486448    -0.01400
C819        C  0.70980207  0.86466517  0.56500640    -0.11600
C820        C  0.70280623  0.86204794  0.52524108    -0.10000
H821        H  0.67884674  0.81664660  0.53662386     0.07900
H822        H  0.69341780  0.81911988  0.60052394     0.11600
H823        H  0.71884432  0.87796182  0.57223285     0.11300
H824        H  0.70684161  0.87333042  0.50318072     0.07900
C825        C  0.64927325  0.83735534  0.24906047    -0.11200
C826        C  0.63064209  0.84405281  0.26528971     0.05900
C827        C  0.62919165  0.84634863  0.30718538    -0.10000
C828        C  0.64581262  0.84176743  0.33217856    -0.11600
C829        C  0.66455532  0.83489561  0.31599235    -0.01400
C830        C  0.66585420  0.83287827  0.27386901    -0.10500
C831        C  0.61289046  0.84833558  0.23832692     0.06000
H832        H  0.61510144  0.85153358  0.32075912     0.07900
H833        H  0.64347764  0.84284209  0.36419625     0.11300
H834        H  0.67968259  0.82708365  0.26015132     0.11600
H835        H  0.65090172  0.83495578  0.21705454     0.07900
C836        C  0.61597369  0.85765707  0.20099771    -0.11200
C837        C  0.59969292  0.86102443  0.17474887    -0.10500
C838        C  0.57978249  0.85519435  0.18493834    -0.01400
C839        C  0.57651002  0.84615380  0.22246981    -0.11600
C840        C  0.59288351  0.84275741  0.24888267    -0.10000
H841        H  0.63103747  0.86250459  0.19207676     0.07900
H842        H  0.60274094  0.86824852  0.14629729     0.11600
H843        H  0.56133904  0.84157191  0.23126376     0.11300
H844        H  0.58993983  0.83537822  0.27720380     0.07900
C845        C  0.73910367  0.83755139  0.35209031    -0.11200
C846        C  0.74170849  0.85529275  0.32994494     0.05900
C847        C  0.72509508  0.86346115  0.30890863    -0.10000
C848        C  0.70586141  0.85408765  0.31102512    -0.11600
C849        C  0.70311428  0.83611210  0.33357475    -0.01400
C850        C  0.72022949  0.82822894  0.35408190    -0.10500
C851        C  0.76218668  0.86444186  0.32981496     0.06000
H852        H  0.72688877  0.87727965  0.29178389     0.07900
H853        H  0.69318807  0.86138885  0.29617543     0.11300
H854        H  0.71887865  0.81476881  0.37241016     0.11600
H855        H  0.75179448  0.83094393  0.36830617     0.07900
C856        C  0.77037546  0.87160644  0.36611823    -0.11200
C857        C  0.79145435  0.87247080  0.37157378    -0.10500
C858        C  0.80472584  0.86507439  0.34149030    -0.01400
C859        C  0.79638563  0.86140383  0.30299497    -0.11600
C860        C  0.77526169  0.86073894  0.29739179    -0.10000
H861        H  0.76046348  0.87490794  0.39133448     0.07900
H862        H  0.79716518  0.87760872  0.40033415     0.11600
H863        H  0.80618679  0.85695961  0.27830109     0.11300
H864        H  0.76923318  0.85533805  0.26900179     0.07900
C865        C  0.71151357  0.75919568  0.65971708    -0.11200
C866        C  0.69726713  0.77078609  0.68156428     0.05900
C867        C  0.67968806  0.76111656  0.69566643    -0.10000
C868        C  0.67655908  0.74025091  0.68840340    -0.11600
C869        C  0.69067260  0.72850386  0.66558968    -0.01400
C870        C  0.70833397  0.73860340  0.65204763    -0.10500
C871        C  0.70070413  0.79306391  0.68669103     0.06000
H872        H  0.66845832  0.76962703  0.71275427     0.07900
H873        H  0.66304097  0.73362504  0.70114348     0.11300
H874        H  0.71977896  0.73036784  0.63495942     0.11600
H875        H  0.72505190  0.76616535  0.64746413     0.07900
C876        C  0.72063488  0.80027332  0.69143568    -0.11200
C877        C  0.72546116  0.82010019  0.68068919    -0.10500
C878        C  0.71045395  0.83301123  0.66401344    -0.01400
C879        C  0.68992233  0.82761884  0.67094905    -0.11600
C880        C  0.68504260  0.80737252  0.68030727    -0.10000
H881        H  0.73284553  0.79004896  0.69998857     0.07900
H882        H  0.74125383  0.82453905  0.68288718     0.11600
H883        H  0.67777310  0.83791371  0.66241372     0.11300
H884        H  0.66931779  0.80257040  0.67834394     0.07900
C885        C  0.65129260  0.67914820  0.73072866    -0.11200
C886        C  0.63225671  0.68490143  0.71510066     0.05900
C887        C  0.63163040  0.69625551  0.67970833    -0.10000
C888        C  0.64961355  0.70221653  0.66092813    -0.11600
C889        C  0.66887606  0.69698023  0.67685956    -0.01400
C890        C  0.66936874  0.68512726  0.71198326    -0.10500
C891        C  0.61317108  0.68017638  0.73699984     0.06000
H892        H  0.61717755  0.70077892  0.66681136     0.07900
H893        H  0.64850279  0.71147273  0.63427812     0.11300
H894        H  0.68361989  0.68090471  0.72594831     0.11600
H895        H  0.65221491  0.67061852  0.75833992     0.07900
C896        C  0.61007961  0.66084926  0.75362602    -0.11200
C897        C  0.59279992  0.65699781  0.77688212    -0.10500
C898        C  0.57835666  0.67245051  0.78430588    -0.01400
C899        C  0.58112854  0.69157912  0.76667117    -0.11600
C900        C  0.59830852  0.69537163  0.74310005    -0.10000
H901        H  0.62117814  0.64880748  0.74907422     0.07900
H902        H  0.59110330  0.64210784  0.79019816     0.11600
H903        H  0.57033402  0.70380276  0.77209461     0.11300
H904        H  0.60038312  0.71047273  0.73095939     0.07900
C905        C  0.68403830  0.67630100  0.55495326    -0.11200
C906        C  0.69113599  0.69081739  0.52774507     0.05900
C907        C  0.69194451  0.71122918  0.54071728    -0.10000
C908        C  0.68930577  0.71638884  0.58104875    -0.11600
C909        C  0.68624083  0.70119355  0.61023840    -0.01400
C910        C  0.68078793  0.68172010  0.59518462    -0.10500
C911        C  0.69852975  0.68509771  0.48675005     0.06000
H912        H  0.69522662  0.72331964  0.51979668     0.07900
H913        H  0.69011693  0.73235782  0.58843853     0.11300
H914        H  0.67494759  0.67014637  0.61514729     0.11600
H915        H  0.68188016  0.66062551  0.54587718     0.07900
C916        C  0.69040336  0.66874919  0.46430809    -0.11200
C917        C  0.69677561  0.66502658  0.42454781    -0.10500
C918        C  0.71081733  0.67816888  0.40571329    -0.01400
C919        C  0.71998818  0.69334588  0.43003928    -0.11600
C920        C  0.71428341  0.69644285  0.46965772    -0.10000
H921        H  0.67855744  0.65928350  0.47675021     0.07900
H922        H  0.68979646  0.65254359  0.40863917     0.11600
H923        H  0.73084203  0.70395280  0.41762706     0.11300
H924        H  0.72184060  0.70838557  0.48641616     0.07900
C925        C  0.71361137  0.63154263  0.29065355    -0.11200
C926        C  0.69326741  0.62532475  0.29197065     0.05900
C927        C  0.67917419  0.63783443  0.31241272    -0.10000
C928        C  0.68572593  0.65538963  0.33325467    -0.11600
C929        C  0.70658314  0.66077769  0.33490668    -0.01400
C930        C  0.72006485  0.64896943  0.31092791    -0.10500
C931        C  0.68731129  0.60607424  0.27092787     0.06000
H932        H  0.66319586  0.63384284  0.31303598     0.07900
H933        H  0.67447971  0.66462974  0.34875095     0.11300
H934        H  0.73581765  0.65295419  0.30672477     0.11600
H935        H  0.72469741  0.62301105  0.27320389     0.07900
C936        C  0.66951045  0.60492151  0.24760130    -0.11200
C937        C  0.66575043  0.58774883  0.22343093    -0.10500
C938        C  0.67975761  0.57145701  0.22190880    -0.01400
C939        C  0.69689683  0.57208513  0.24693947    -0.11600
C940        C  0.70053734  0.58910831  0.27137299    -0.10000
H941        H  0.65904318  0.61768088  0.24642159     0.07900
H942        H  0.65236936  0.58767456  0.20441193     0.11600
H943        H  0.70782571  0.55969113  0.24672234     0.11300
H944        H  0.71412917  0.58926560  0.28978640     0.07900
C945        C  0.69645728  0.72573201  0.29571641    -0.11200
C946        C  0.68593196  0.73760562  0.32443972     0.05900
C947        C  0.68045985  0.72845865  0.36058937    -0.10000
C948        C  0.68772095  0.70921231  0.37021779    -0.11600
C949        C  0.70143969  0.69857230  0.34461676    -0.01400
C950        C  0.70336485  0.70601816  0.30518685    -0.10500
C951        C  0.68299281  0.76001714  0.32015628     0.06000
H952        H  0.67183567  0.73675383  0.38310980     0.07900
H953        H  0.68318162  0.70345358  0.39907961     0.11300
H954        H  0.71221994  0.69758624  0.28320489     0.11600
H955        H  0.70017899  0.73203150  0.26673620     0.07900
C956        C  0.69889012  0.77211154  0.30561358    -0.11200
C957        C  0.69841244  0.79329473  0.31056610    -0.10500
C958        C  0.68232903  0.80303020  0.33166792    -0.01400
C959        C  0.66537670  0.79096833  0.34184809    -0.11600
C960        C  0.66577281  0.76980811  0.33652722    -0.10000
H961        H  0.71228087  0.76514667  0.29231870     0.07900
H962        H  0.71101289  0.80179077  0.29845105     0.11600
H963        H  0.65220613  0.79788914  0.35605733     0.11300
H964        H  0.65292709  0.76100572  0.34690374     0.07900
C965        C  0.77848116  0.67231554  0.63649963    -0.11200
C966        C  0.77087097  0.67574482  0.67532954     0.05900
C967        C  0.78461144  0.67659301  0.70749851    -0.10000
C968        C  0.80560637  0.67506295  0.70060143    -0.11600
C969        C  0.81348451  0.67384041  0.66115567    -0.01400
C970        C  0.79940989  0.67113103  0.62952714    -0.10500
C971        C  0.74877848  0.67974996  0.68098016     0.06000
H972        H  0.77912720  0.67873394  0.73789162     0.07900
H973        H  0.81587495  0.67607810  0.72596265     0.11300
H974        H  0.80433492  0.66829710  0.59906165     0.11600
H975        H  0.76822317  0.67127714  0.61111337     0.07900
C976        C  0.74195292  0.69664444  0.70325548    -0.11200
C977        C  0.72171227  0.70329899  0.69982016    -0.10500
C978        C  0.70806808  0.69390292  0.67229819    -0.01400
C979        C  0.71419012  0.67455890  0.65730450    -0.11600
C980        C  0.73439070  0.66800015  0.66041416    -0.10000
H981        H  0.75250990  0.70555028  0.72098777     0.07900
H982        H  0.71734402  0.71675811  0.71668496     0.11600
H983        H  0.70422290  0.66461473  0.64173535     0.11300
H984        H  0.73893898  0.65407114  0.64519374     0.07900
C985        C  0.84280294  0.58461035  0.74245417    -0.11200
C986        C  0.85846351  0.59895339  0.73694738     0.05900
C987        C  0.87726336  0.59566640  0.75595135    -0.10000
C988        C  0.88001559  0.57912498  0.78147934    -0.11600
C989        C  0.86406217  0.56539656  0.78867823    -0.01400
C990        C  0.84557159  0.56798979  0.76813370    -0.10500
C991        C  0.85479257  0.61798540  0.71392912     0.06000
H992        H  0.88975265  0.60616275  0.75174832     0.07900
H993        H  0.89452316  0.57745019  0.79660620     0.11300
H994        H  0.83301246  0.55767322  0.77314963     0.11600
H995        H  0.82808128  0.58675738  0.72842894     0.07900
C996        C  0.84315733  0.61773013  0.67864336    -0.11200
C997        C  0.83827178  0.63588795  0.65920693    -0.10500
C998        C  0.84499081  0.65493329  0.67413993    -0.01400
C999        C  0.85706218  0.65502124  0.70913268    -0.11600
C1000       C  0.86195892  0.63681336  0.72853332    -0.10000
H1001       H  0.83756293  0.60349547  0.66635216     0.07900
H1002       H  0.82878335  0.63516405  0.63264594     0.11600
H1003       H  0.86206896  0.66910446  0.72284141     0.11300
H1004       H  0.87063713  0.63759138  0.75612886     0.07900
C1005       C  0.87560603  0.71773450  0.66619904    -0.11200
C1006       C  0.86297464  0.73452634  0.67416814     0.05900
C1007       C  0.84263146  0.73112814  0.68467403    -0.10000
C1008       C  0.83439329  0.71158827  0.68292632    -0.11600
C1009       C  0.84645844  0.69455981  0.67164721    -0.01400
C1010       C  0.86758701  0.69796934  0.66607758    -0.10500
C1011       C  0.86961549  0.75566668  0.66619853     0.06000
H1012       H  0.83253231  0.74388953  0.69059907     0.07900
H1013       H  0.81811609  0.71063594  0.68651649     0.11300
H1014       H  0.87748105  0.68549385  0.65722002     0.11600
H1015       H  0.89140715  0.71998982  0.65812098     0.07900
C1016       C  0.87640124  0.76108638  0.62780197    -0.11200
C1017       C  0.87719648  0.78161050  0.61660760    -0.10500
C1018       C  0.87059907  0.79710829  0.64329420    -0.01400
C1019       C  0.86687060  0.79153805  0.68350318    -0.11600
C1020       C  0.86587255  0.77109468  0.69452312    -0.10000
H1021       H  0.87978025  0.74941768  0.60560048     0.07900
H1022       H  0.88222655  0.78510237  0.58659219     0.11600
H1023       H  0.86290367  0.80303708  0.70564426     0.11300
H1024       H  0.86101287  0.76729346  0.72458142     0.07900
C1025       C  0.86702775  0.76630957  0.32917003    -0.11200
C1026       C  0.85195144  0.77617130  0.35180865     0.05900
C1027       C  0.84219979  0.76534284  0.38240228    -0.10000
C1028       C  0.84724970  0.74499946  0.38978679    -0.11600
C1029       C  0.86244810  0.73474547  0.36723026    -0.01400
C1030       C  0.87193556  0.74589530  0.33614862    -0.10500
C1031       C  0.84581432  0.79744549  0.34262248     0.06000
H1032       H  0.83050412  0.77259469  0.40049337     0.07900
H1033       H  0.83897871  0.73707586  0.41297290     0.11300
H1034       H  0.88265095  0.73894352  0.31565714     0.26000
H1035       H  0.87446403  0.77417495  0.30482399     0.07900
C1036       C  0.86039303  0.81278320  0.33740295    -0.11200
C1037       C  0.85438004  0.83318860  0.33352449    -0.10500
C1038       C  0.83357558  0.83888681  0.33458038    -0.01400
C1039       C  0.81911267  0.82293246  0.33641059    -0.11600
C1040       C  0.82515607  0.80266001  0.34049152    -0.10000
H1041       H  0.87648096  0.80917104  0.33893801     0.07900
H1042       H  0.86610592  0.84473050  0.33353267     0.11600
H1043       H  0.80298652  0.82602614  0.33889488     0.11300
H1044       H  0.81357284  0.79108311  0.34375562     0.07900
C1045       C  0.84376810  0.69773680  0.55056978    -0.11200
C1046       C  0.85994418  0.68635517  0.53441576     0.05900
C1047       C  0.86648484  0.66880682  0.55450236    -0.10000
C1048       C  0.85804475  0.66364099  0.59162544    -0.11600
C1049       C  0.84258709  0.67581069  0.60935397    -0.01400
C1050       C  0.83532906  0.69263764  0.58732919    -0.10500
C1051       C  0.86924879  0.69282619  0.49608196     0.06000
H1052       H  0.87882936  0.65963451  0.54250476     0.07900
H1053       H  0.86480450  0.65097364  0.60730141     0.11300
H1054       H  0.82377752  0.70263641  0.59986032     0.11600
H1055       H  0.83784847  0.71094375  0.53511366     0.07900
C1056       C  0.87154579  0.71366214  0.48779236    -0.11200
C1057       C  0.87388691  0.72022968  0.44834701    -0.10500
C1058       C  0.87306212  0.70599737  0.41658468    -0.01400
C1059       C  0.87573176  0.68517198  0.42611522    -0.11600
C1060       C  0.87333614  0.67859278  0.46555441    -0.10000
H1061       H  0.86996853  0.72495690  0.51146683     0.07900
H1062       H  0.87443767  0.73641929  0.44305999     0.11600
H1063       H  0.87638500  0.67376393  0.40250115     0.11300
H1064       H  0.87238942  0.66240585  0.47117384     0.07900
C1065       C  0.94631000  0.70331086  0.25418257    -0.11200
C1066       C  0.93370281  0.68745564  0.26764163     0.05900
C1067       C  0.93742889  0.66757773  0.25342182    -0.10000
C1068       C  0.95336618  0.66367917  0.22647169    -0.11600
C1069       C  0.96598115  0.67954375  0.21325084    -0.01400
C1070       C  0.96227664  0.69939437  0.22738688    -0.10500
C1071       C  0.91673133  0.69186574  0.29615890     0.06000
H1072       H  0.92814915  0.65500138  0.26341482     0.07900
H1073       H  0.95580783  0.64821810  0.21592374     0.11300
H1074       H  0.97154231  0.71196099  0.21727293     0.11600
H1075       H  0.94362018  0.71886813  0.26387727     0.07900
C1076       C  0.91947255  0.70605523  0.32732810    -0.11200
C1077       C  0.90328117  0.71157286  0.35220911    -0.10500
C1078       C  0.88355604  0.70350793  0.34631954    -0.01400
C1079       C  0.88122951  0.68811973  0.31688867    -0.11600
C1080       C  0.89758404  0.68249457  0.29197822    -0.10000
H1081       H  0.93417018  0.71306333  0.33235264     0.07900
H1082       H  0.90593896  0.72286900  0.37548511     0.11600
H1083       H  0.86689350  0.68039611  0.31264040     0.11300
H1084       H  0.89505240  0.67121720  0.26865053     0.07900
C1085       C  0.81260919  0.68789948  0.39169752    -0.11200
C1086       C  0.80312828  0.69034323  0.35458172     0.05900
C1087       C  0.81458077  0.69815217  0.32257089    -0.10000
C1088       C  0.83509527  0.70365505  0.32801348    -0.11600
C1089       C  0.84478011  0.70158226  0.36565778    -0.01400
C1090       C  0.83272755  0.69373849  0.39739950    -0.10500
C1091       C  0.78083440  0.68673501  0.35140939     0.06000
H1092       H  0.80751211  0.70046435  0.29360888     0.07900
H1093       H  0.84320673  0.71040429  0.30320314     0.11300
H1094       H  0.83790415  0.69328217  0.42802866     0.11600
H1095       H  0.80400519  0.68270890  0.41737038     0.07900
C1096       C  0.77192912  0.66965697  0.36927808    -0.11200
C1097       C  0.75075247  0.66759485  0.37074690    -0.10500
C1098       C  0.73757681  0.68251098  0.35434163    -0.01400
C1099       C  0.74687204  0.69988943  0.33741952    -0.11600
C1100       C  0.76807314  0.70167756  0.33517471    -0.10000
H1101       H  0.78138352  0.65799730  0.38270635     0.07900
H1102       H  0.74447733  0.65428690  0.38514683     0.11600
H1103       H  0.73826639  0.71283436  0.32739119     0.11300
H1104       H  0.77451162  0.71542037  0.32275830     0.07900
C1105       C  0.13160239  0.33281729  0.66851856    -0.11200
C1106       C  0.13446499  0.34467215  0.70335245     0.05900
C1107       C  0.15415065  0.35227419  0.71108833    -0.10000
C1108       C  0.17072210  0.34692650  0.68655902    -0.11600
C1109       C  0.16819508  0.33355765  0.65361965    -0.01400
C1110       C  0.14808682  0.32764812  0.64381733    -0.10500
C1111       C  0.11731767  0.34824016  0.73241177     0.06000
H1112       H  0.15687131  0.36225543  0.73650992     0.07900
H1113       H  0.18544628  0.35311029  0.69419669     0.11300
H1114       H  0.14534449  0.31784328  0.61809771     0.11600
H1115       H  0.11678984  0.32666298  0.66114613     0.07900
C1116       C  0.09688554  0.34967965  0.71947401    -0.11200
C1117       C  0.08093824  0.35226227  0.74719848    -0.10500
C1118       C  0.08502350  0.35368519  0.78850018    -0.01400
C1119       C  0.10535239  0.35228584  0.80143076    -0.11600
C1120       C  0.12122133  0.34948345  0.77389966    -0.10000
H1121       H  0.09316816  0.34906880  0.68786180     0.07900
H1122       H  0.06544727  0.35346009  0.73627425     0.11600
H1123       H  0.10903246  0.35325937  0.83306262     0.11300
H1124       H  0.13656296  0.34793323  0.78538677     0.07900
C1125       C  0.18503050  0.36760510  0.44262968    -0.11200
C1126       C  0.19465699  0.35284872  0.46638286     0.05900
C1127       C  0.21297130  0.34424085  0.45292229    -0.10000
C1128       C  0.22075189  0.34897145  0.41537847    -0.11600
C1129       C  0.21066646  0.36271698  0.38962978    -0.01400
C1130       C  0.19280117  0.37235060  0.40449383    -0.10500
C1131       C  0.18593881  0.34561435  0.50482083     0.06000
H1132       H  0.22097270  0.33315202  0.47101749     0.07900
H1133       H  0.23410076  0.34069083  0.40527297     0.11300
H1134       H  0.18389631  0.38240211  0.38582469     0.11600
H1135       H  0.17090431  0.37456390  0.45254032     0.07900
C1136       C  0.18114967  0.35926511  0.53593261    -0.11200
C1137       C  0.17868095  0.35210572  0.57513782    -0.10500
C1138       C  0.18150833  0.33118849  0.58411913    -0.01400
C1139       C  0.18254211  0.31742995  0.55148552    -0.11600
C1140       C  0.18514681  0.32460972  0.51245372    -0.10000
H1141       H  0.18122952  0.37552515  0.53072891     0.07900
H1142       H  0.17706789  0.36319255  0.59915985     0.11600
H1143       H  0.18284374  0.30116554  0.55576699     0.11300
H1144       H  0.18785282  0.31371885  0.48843528     0.07900
C1145       C  0.19046171  0.39280871  0.25880986    -0.11200
C1146       C  0.19450001  0.41303824  0.27088992     0.05900
C1147       C  0.20373132  0.41617867  0.30848757    -0.10000
C1148       C  0.20959831  0.39976638  0.33229978    -0.11600
C1149       C  0.20600001  0.37946500  0.32020463    -0.01400
C1150       C  0.19612207  0.37627564  0.28303511    -0.10500
C1151       C  0.18998083  0.43080493  0.24412325     0.06000
H1152       H  0.20673105  0.43140536  0.31957934     0.07900
H1153       H  0.21754856  0.40291531  0.36013078     0.11300
H1154       H  0.19373441  0.36105842  0.27137895     0.11600
H1155       H  0.18372368  0.38963338  0.22980581     0.07900
C1156       C  0.17327759  0.43066252  0.21755709    -0.11200
C1157       C  0.16946532  0.44726721  0.19231575    -0.10500
C1158       C  0.18210678  0.46453885  0.19325785    -0.01400
C1159       C  0.19857388  0.46485758  0.22000784    -0.11600
C1160       C  0.20257794  0.44818231  0.24476018    -0.10000
H1161       H  0.16302488  0.41780059  0.21640069     0.07900
H1162       H  0.15659681  0.44658523  0.17200556     0.11600
H1163       H  0.20870971  0.47782852  0.22110838     0.11300
H1164       H  0.21590546  0.44882079  0.26381240     0.07900
C1165       C  0.19048838  0.14316784  0.73802478    -0.11200
C1166       C  0.19330787  0.12300540  0.72394678     0.05900
C1167       C  0.20187461  0.12027497  0.68561954    -0.10000
C1168       C  0.20864774  0.13686996  0.66346747    -0.11600
C1169       C  0.20624739  0.15705031  0.67758326    -0.01400
C1170       C  0.19674499  0.15992140  0.71516741    -0.10500
C1171       C  0.18852598  0.10490685  0.74968689     0.06000
H1172       H  0.20380107  0.10523372  0.67269801     0.07900
H1173       H  0.21621219  0.13393429  0.63512512     0.11300
H1174       H  0.19522449  0.17495929  0.72828425     0.11600
H1175       H  0.18433923  0.14612327  0.76759878     0.07900
C1176       C  0.17339995  0.10589424  0.77963389    -0.11200
C1177       C  0.16986503  0.08931005  0.80492387    -0.10500
C1178       C  0.18105094  0.07111512  0.80056213    -0.01400
C1179       C  0.19572976  0.06980930  0.77014912    -0.11600
C1180       C  0.19958290  0.08650397  0.74539717    -0.10000
H1181       H  0.16419217  0.11944927  0.78367663     0.07900
H1182       H  0.15832739  0.09074180  0.82799479     0.11600
H1183       H  0.20468611  0.05605179  0.76622483     0.11300
H1184       H  0.21173988  0.08502939  0.72370378     0.07900
C1185       C  0.22208400  0.23219366  0.66955088    -0.11200
C1186       C  0.20187114  0.23845391  0.66408011     0.05900
C1187       C  0.18642450  0.22372785  0.66559292    -0.10000
C1188       C  0.19128590  0.20297490  0.66821127    -0.11600
C1189       C  0.21176187  0.19629485  0.66929659    -0.01400
C1190       C  0.22699575  0.21154646  0.67212715    -0.10500
C1191       C  0.19713800  0.25998456  0.65375466     0.06000
H1192       H  0.17064085  0.22809820  0.66162782     0.07900
H1193       H  0.17909853  0.19200097  0.66526479     0.11300
H1194       H  0.24303536  0.20787169  0.67203673     0.11600
H1195       H  0.23429627  0.24324515  0.66953073     0.07900
C1196       C  0.20923562  0.27056901  0.62618312    -0.11200
C1197       C  0.20480452  0.29079463  0.61638575    -0.10500
C1198       C  0.18820566  0.30137909  0.63405992    -0.01400
C1199       C  0.17615185  0.29035028  0.66172739    -0.11600
C1200       C  0.18039021  0.27001835  0.67083762    -0.10000
H1201       H  0.22217491  0.26318156  0.61205051     0.07900
H1202       H  0.21489591  0.29851917  0.59586415     0.11600
H1203       H  0.16386502  0.29730224  0.67834996     0.11300
H1204       H  0.17093421  0.26234122  0.69256243     0.07900
C1205       C  0.20366278  0.26718614  0.37827061    -0.11200
C1206       C  0.19216597  0.27758114  0.34939925     0.05900
C1207       C  0.17655929  0.26720582  0.32945098    -0.10000
C1208       C  0.17281188  0.24665866  0.33747793    -0.11600
C1209       C  0.18408189  0.23590971  0.36704049    -0.01400
C1210       C  0.19984410  0.24676046  0.38662521    -0.10500
C1211       C  0.19745380  0.29883608  0.33891144     0.06000
H1212       H  0.16780908  0.27476344  0.30634084     0.07900
H1213       H  0.16151075  0.23937517  0.31887316     0.11300
H1214       H  0.20957846  0.23923219  0.40818743     0.11600
H1215       H  0.21587825  0.27484231  0.39413394     0.07900
C1216       C  0.18272455  0.31438629  0.33800334    -0.11200
C1217       C  0.18865239  0.33483558  0.33456018    -0.10500
C1218       C  0.20946601  0.34025445  0.33192541    -0.01400
C1219       C  0.22381790  0.32409668  0.32946864    -0.11600
C1220       C  0.21786378  0.30386603  0.33268818    -0.10000
H1221       H  0.16680666  0.31086164  0.34269351     0.07900
H1222       H  0.17711095  0.34657030  0.33754987     0.11600
H1223       H  0.24002722  0.32671819  0.32920711     0.11300
H1224       H  0.22949104  0.29210959  0.33264282     0.07900
C1225       C  0.18203252  0.21438245  0.48923159    -0.11200
C1226       C  0.18285838  0.19343734  0.49731275     0.05900
C1227       C  0.17620636  0.17973254  0.46762069    -0.10000
C1228       C  0.17245298  0.18661689  0.42856433    -0.11600
C1229       C  0.17570680  0.20730281  0.41845121    -0.01400
C1230       C  0.17777411  0.22130375  0.45054347    -0.10500
C1231       C  0.19262277  0.18611812  0.53483761     0.06000
H1232       H  0.17604101  0.16352361  0.47334475     0.07900
H1233       H  0.16998785  0.17533189  0.40521967     0.11300
H1234       H  0.17794018  0.23752477  0.44583619     0.11600
H1235       H  0.18583005  0.22539202  0.51241328     0.07900
C1236       C  0.18368783  0.17101614  0.55844110    -0.11200
C1237       C  0.19225044  0.16572654  0.59551677    -0.10500
C1238       C  0.21042707  0.17498565  0.60958881    -0.01400
C1239       C  0.21989263  0.18915397  0.58395998    -0.11600
C1240       C  0.21114771  0.19462353  0.54742298    -0.10000
H1241       H  0.16942525  0.16415462  0.54932648     0.07900
H1242       H  0.18362153  0.15546138  0.61402078     0.11600
H1243       H  0.23351116  0.19708541  0.59346415     0.11300
H1244       H  0.21865622  0.20599300  0.52935830     0.07900
C1245       C  0.09490281  0.18744030  0.27638059    -0.11200
C1246       C  0.11549231  0.18837517  0.26432603     0.05900
C1247       C  0.11984937  0.18604082  0.22316772    -0.10000
C1248       C  0.10420625  0.18292099  0.19513014    -0.11600
C1249       C  0.08369653  0.18223349  0.20724144    -0.01400
C1250       C  0.07923646  0.18451616  0.24822260    -0.10500
C1251       C  0.13220384  0.19251682  0.29416681     0.06000
H1252       H  0.13534777  0.18700842  0.21233164     0.07900
H1253       H  0.10819661  0.18115145  0.16377519     0.11300
H1254       H  0.06363256  0.18381189  0.25860824     0.11600
H1255       H  0.09080991  0.18873662  0.30773011     0.07900
C1256       C  0.12857896  0.20498916  0.32789612    -0.11200
C1257       C  0.14434355  0.21012567  0.35425739    -0.10500
C1258       C  0.16460442  0.20367219  0.34729295    -0.01400
C1259       C  0.16795640  0.18992543  0.31516806    -0.11600
C1260       C  0.15204150  0.18459847  0.28886821    -0.10000
H1261       H  0.11369160  0.21156875  0.33327527     0.07900
H1262       H  0.14096020  0.22034997  0.37905707     0.11600
H1263       H  0.18281314  0.18341531  0.30957561     0.11300
H1264       H  0.15535597  0.17428294  0.26422257     0.07900
C1265       C  0.45870650  0.17634384  0.74086196    -0.11200
C1266       C  0.43886581  0.17870908  0.75656783     0.05900
C1267       C  0.43669952  0.17995431  0.79855148    -0.10000
C1268       C  0.45364561  0.17852808  0.82396624    -0.11600
C1269       C  0.47337500  0.17598778  0.80832627    -0.01400
C1270       C  0.47573199  0.17500449  0.76641511    -0.10500
C1271       C  0.42051208  0.18040871  0.72971708     0.06000
H1272       H  0.42186162  0.18230088  0.81197564     0.07900
H1273       H  0.45125801  0.17939228  0.85607631     0.11300
H1274       H  0.49070543  0.17290513  0.75338547     0.11600
H1275       H  0.46108464  0.17516830  0.70880198     0.07900
C1276       C  0.42158872  0.19065765  0.69292642    -0.11200
C1277       C  0.40401167  0.19414179  0.67004570    -0.10500
C1278       C  0.38458744  0.18776394  0.68319754    -0.01400
C1279       C  0.38375090  0.17647642  0.71900262    -0.11600
C1280       C  0.40142220  0.17276709  0.74163722    -0.10000
H1281       H  0.43585478  0.19695846  0.68265705     0.07900
H1282       H  0.40537906  0.20305423  0.64299509     0.11600
H1283       H  0.36938325  0.17144179  0.73111787     0.11300
H1284       H  0.39997662  0.16435737  0.76926591     0.07900
C1285       C  0.31997652  0.16058269  0.67376608    -0.11200
C1286       C  0.30397854  0.17416664  0.68189432     0.05900
C1287       C  0.30847598  0.19439300  0.69163299    -0.10000
C1288       C  0.32839273  0.20152582  0.68965497    -0.11600
C1289       C  0.34478314  0.18842126  0.67909445    -0.01400
C1290       C  0.34018143  0.16751461  0.67339929    -0.10500
C1291       C  0.28239766  0.16850510  0.67618699     0.06000
H1292       H  0.29627307  0.20517278  0.69753063     0.07900
H1293       H  0.33012894  0.21777798  0.69260069     0.11300
H1294       H  0.35208836  0.15692215  0.66467371     0.11600
H1295       H  0.31677455  0.14485456  0.66612906     0.07900
C1296       C  0.27483106  0.16439977  0.63755794    -0.11200
C1297       C  0.25379156  0.16478845  0.63012013    -0.10500
C1298       C  0.23997800  0.16981401  0.66114722    -0.01400
C1299       C  0.24776479  0.17129764  0.70063632    -0.11600
C1300       C  0.26867799  0.17108361  0.70789951    -0.10000
H1301       H  0.28523793  0.16222705  0.61267279     0.07900
H1302       H  0.24861101  0.16197000  0.59982238     0.11600
H1303       H  0.23764621  0.17442258  0.72558623     0.11300
H1304       H  0.27420249  0.17418677  0.73795186     0.07900
C1305       C  0.23627869  0.19135923  0.39254272    -0.11200
C1306       C  0.24605252  0.19590128  0.35671281     0.05900
C1307       C  0.23448721  0.20319806  0.32440729    -0.10000
C1308       C  0.21349521  0.20704054  0.32910784    -0.11600
C1309       C  0.20352415  0.20345813  0.36608647    -0.01400
C1310       C  0.21565215  0.19511722  0.39732071    -0.10500
C1311       C  0.26846686  0.19385003  0.35533981     0.06000
H1312       H  0.24184573  0.20686155  0.29633224     0.07900
H1313       H  0.20524417  0.21395511  0.30457740     0.11300
H1314       H  0.21017884  0.19269877  0.42723212     0.11600
H1315       H  0.24489584  0.18560669  0.41782355     0.07900
C1316       C  0.27797083  0.18062404  0.32805204    -0.11200
C1317       C  0.29871292  0.17595735  0.33212215    -0.10500
C1318       C  0.31037916  0.18406477  0.36433723    -0.01400
C1319       C  0.30087787  0.19888909  0.38901630    -0.11600
C1320       C  0.28023570  0.20341208  0.38505394    -0.10000
H1321       H  0.26919419  0.17333119  0.30449944     0.07900
H1322       H  0.30533755  0.16597656  0.30974924     0.11600
H1323       H  0.30934059  0.20644855  0.41267402     0.11300
H1324       H  0.27324909  0.21398534  0.40608905     0.07900
C1325       C  0.37046066  0.16933703  0.55924559    -0.11200
C1326       C  0.35374637  0.17758594  0.53844435     0.05900
C1327       C  0.34248654  0.19325004  0.55686584    -0.10000
C1328       C  0.34741641  0.20016824  0.59526719    -0.11600
C1329       C  0.36376802  0.19165184  0.61721096    -0.01400
C1330       C  0.37530809  0.17610763  0.59824494    -0.10500
C1331       C  0.34843199  0.17107329  0.49676889     0.06000
H1332       H  0.32980671  0.20031125  0.54142638     0.07900
H1333       H  0.33786439  0.21184805  0.60868549     0.11300
H1334       H  0.38749352  0.16842853  0.61390591     0.11600
H1335       H  0.37943391  0.15722280  0.54579098     0.07900
C1336       C  0.36357987  0.16889270  0.46732917    -0.11200
C1337       C  0.35830381  0.16862990  0.42657108    -0.10500
C1338       C  0.33783877  0.17152095  0.41450598    -0.01400
C1339       C  0.32268588  0.16928070  0.44417055    -0.11600
C1340       C  0.32793362  0.16957717  0.48486067    -0.10000
H1341       H  0.37953403  0.16935808  0.47548850     0.07900
H1342       H  0.37040091  0.16896202  0.40451978     0.11600
H1343       H  0.30670113  0.16873667  0.43657793     0.11300
H1344       H  0.31588815  0.16986871  0.50705195     0.07900
C1345       C  0.36101539  0.14659978  0.28906351    -0.11200
C1346       C  0.35018492  0.12812511  0.29080151     0.05900
C1347       C  0.33514949  0.12613569  0.32041708    -0.10000
C1348       C  0.33065949  0.14225573  0.34660443    -0.11600
C1349       C  0.34040994  0.16133021  0.34327069    -0.01400
C1350       C  0.35631763  0.16291231  0.31504780    -0.10500
C1351       C  0.35418242  0.11114182  0.26152255     0.06000
H1352       H  0.32636054  0.11228235  0.32276419     0.07900
H1353       H  0.31872968  0.14016995  0.36860855     0.11300
H1354       H  0.36525519  0.17662999  0.31276654     0.11600
H1355       H  0.37322420  0.14846445  0.26761531     0.07900
C1356       C  0.35899118  0.11533651  0.22131839    -0.11200
C1357       C  0.36222196  0.09951067  0.19361822    -0.10500
C1358       C  0.36069486  0.07902667  0.20524864    -0.01400
C1359       C  0.35588496  0.07472881  0.24530160    -0.11600
C1360       C  0.35268533  0.09058098  0.27310715    -0.10000
H1361       H  0.35993051  0.13089247  0.21098586     0.07900
H1362       H  0.36591743  0.10335042  0.16294421     0.11600
H1363       H  0.35471898  0.05910969  0.25521231     0.11300
H1364       H  0.34928917  0.08668522  0.30385922     0.07900
C1365       C  0.23693701  0.33098722  0.68620769    -0.11200
C1366       C  0.24965358  0.33949653  0.65708381     0.05900
C1367       C  0.24128370  0.34593585  0.62097552    -0.10000
C1368       C  0.22078096  0.34283853  0.61261770    -0.11600
C1369       C  0.20754301  0.33345820  0.64063463    -0.01400
C1370       C  0.21608910  0.32822225  0.67827635    -0.10500
C1371       C  0.27199696  0.33983780  0.66132801     0.06000
H1372       H  0.25098658  0.35231102  0.59800330     0.07900
H1373       H  0.21625080  0.34658876  0.58255172     0.11300
H1374       H  0.20687407  0.32060299  0.70047395     0.11600
H1375       H  0.24327506  0.32571491  0.71428373     0.07900
C1376       C  0.28187570  0.35729512  0.67557050    -0.11200
C1377       C  0.30314894  0.35867961  0.67409259    -0.10500
C1378       C  0.31517465  0.34242614  0.65870816    -0.01400
C1379       C  0.30474980  0.32548276  0.64228984    -0.11600
C1380       C  0.28355778  0.32402921  0.64436532    -0.10000
H1381       H  0.27306696  0.37011046  0.68676355     0.07900
H1382       H  0.30988189  0.37280421  0.68415649     0.11600
H1383       H  0.31316890  0.31305588  0.62853006     0.11300
H1384       H  0.27609156  0.31078733  0.63160905     0.07900
C1385       C  0.36313294  0.39513817  0.68603032    -0.11200
C1386       C  0.35676097  0.39729972  0.72614902     0.05900
C1387       C  0.34760910  0.38047973  0.74457130    -0.10000
C1388       C  0.34308567  0.36288772  0.72258270    -0.11600
C1389       C  0.34740788  0.36138742  0.68116733    -0.01400
C1390       C  0.35893741  0.37727305  0.66410660    -0.10500
C1391       C  0.35881616  0.41705888  0.74855182     0.06000
H1392       H  0.34341117  0.38104444  0.77595317     0.07900
H1393       H  0.33507677  0.35073360  0.73755912     0.11300
H1394       H  0.36442872  0.37640613  0.63365677     0.11600
H1395       H  0.37073557  0.40751040  0.67097707     0.07900
C1396       C  0.37549034  0.43013669  0.74248962    -0.11200
C1397       C  0.37735815  0.44831563  0.76468456    -0.10500
C1398       C  0.36270149  0.45372550  0.79362585    -0.01400
C1399       C  0.34580541  0.44100347  0.79889289    -0.11600
C1400       C  0.34380525  0.42303861  0.77649081    -0.10000
H1401       H  0.38742013  0.42607438  0.72148472     0.07900
H1402       H  0.39064537  0.45775500  0.76025380     0.11600
H1403       H  0.33420644  0.44480328  0.82083145     0.11300
H1404       H  0.33041038  0.41380509  0.78120888     0.07900
C1405       C  0.34374130  0.28997302  0.70623671    -0.11200
C1406       C  0.36318786  0.28432478  0.69283215     0.05900
C1407       C  0.37638489  0.29947103  0.67893716    -0.10000
C1408       C  0.36920847  0.31937919  0.67349826    -0.11600
C1409       C  0.34824188  0.32378477  0.67802316    -0.01400
C1410       C  0.33642523  0.30962697  0.69954256    -0.10500
C1411       C  0.36794779  0.26247287  0.68701836     0.06000
H1412       H  0.39172314  0.29557886  0.66964438     0.07900
H1413       H  0.37924877  0.33045210  0.66005160     0.11300
H1414       H  0.32102677  0.31306657  0.70888282     0.11600
H1415       H  0.33352873  0.27872261  0.71858563     0.07900
C1416       C  0.36535373  0.24859595  0.71825189    -0.11200
C1417       C  0.36589385  0.22765241  0.71042114    -0.10500
C1418       C  0.36741765  0.22006017  0.67067939    -0.01400
C1419       C  0.37193104  0.23414617  0.64016691    -0.11600
C1420       C  0.37213680  0.25506387  0.64829440    -0.10000
H1421       H  0.36228692  0.25398086  0.74845184     0.07900
H1422       H  0.36355018  0.21728669  0.73508272     0.11600
H1423       H  0.37503132  0.22921674  0.60976678     0.11300
H1424       H  0.37441753  0.26553140  0.62376164     0.07900
C1425       C  0.37269596  0.27337070  0.33392457    -0.11200
C1426       C  0.35598910  0.26421287  0.35244729     0.05900
C1427       C  0.34167624  0.27651447  0.37226759    -0.10000
C1428       C  0.34359418  0.29767717  0.37240762    -0.11600
C1429       C  0.35992602  0.30740195  0.35265805    -0.01400
C1430       C  0.37492179  0.29462557  0.33475993    -0.10500
C1431       C  0.35408257  0.24180789  0.35454372     0.06000
H1432       H  0.32890140  0.26968275  0.38762559     0.07900
H1433       H  0.33196510  0.30659726  0.38750088     0.11300
H1434       H  0.38860491  0.30068432  0.32162561     0.11600
H1435       H  0.38430721  0.26402966  0.31973835     0.07900
C1436       C  0.34760564  0.23014895  0.32149883    -0.11200
C1437       C  0.34256451  0.20950052  0.32618138    -0.10500
C1438       C  0.34409324  0.19989149  0.36395821    -0.01400
C1439       C  0.35143562  0.21198656  0.39640520    -0.11600
C1440       C  0.35640649  0.23241195  0.39160652    -0.10000
H1441       H  0.34534414  0.23729275  0.29266613     0.07900
H1442       H  0.33622919  0.20131753  0.30078518     0.11600
H1443       H  0.35178087  0.20663668  0.42686299     0.11300
H1444       H  0.36101543  0.24126804  0.41762470     0.07900
C1445       C  0.37396586  0.33372011  0.46656656    -0.11200
C1446       C  0.35629161  0.34246732  0.48343447     0.05900
C1447       C  0.34071359  0.34866976  0.45777312    -0.10000
C1448       C  0.34235263  0.34576680  0.41651934    -0.11600
C1449       C  0.36013373  0.33730388  0.39846138    -0.01400
C1450       C  0.37579849  0.33107441  0.42481440    -0.10500
C1451       C  0.35284888  0.34311471  0.52757502     0.06000
H1452       H  0.32652549  0.35456403  0.46981206     0.07900
H1453       H  0.32866108  0.34890874  0.39985086     0.11300
H1454       H  0.38921196  0.32346025  0.41308229     0.11600
H1455       H  0.38616906  0.32845471  0.48577592     0.07900
C1456       C  0.35714196  0.32592781  0.55058645    -0.11200
C1457       C  0.35239012  0.32555726  0.59135395    -0.10500
C1458       C  0.34419844  0.34285514  0.61157230    -0.01400
C1459       C  0.33861884  0.35955068  0.58739111    -0.11600
C1460       C  0.34317423  0.35983162  0.54626934    -0.10000
H1461       H  0.36333715  0.31230401  0.53660288     0.07900
H1462       H  0.35450047  0.31114158  0.60605841     0.11600
H1463       H  0.33086661  0.37256110  0.60056699     0.11300
H1464       H  0.33901498  0.37311255  0.52900424     0.07900
C1465       C  0.41338859  0.35504915  0.32546285    -0.11200
C1466       C  0.41553848  0.34851708  0.28539522     0.05900
C1467       C  0.39889711  0.33905293  0.26668843    -0.10000
C1468       C  0.38124842  0.33469391  0.28826830    -0.11600
C1469       C  0.37972421  0.33908803  0.32974996    -0.01400
C1470       C  0.39563722  0.35059071  0.34729022    -0.10500
C1471       C  0.43519663  0.35057697  0.26331897     0.06000
H1472       H  0.39970972  0.33454749  0.23540334     0.07900
H1473       H  0.36905799  0.32672015  0.27295961     0.11300
H1474       H  0.39479000  0.35592486  0.37794229     0.11600
H1475       H  0.42574508  0.36292771  0.34042032     0.07900
C1476       C  0.44654005  0.36869223  0.26475410    -0.11200
C1477       C  0.46442916  0.37062498  0.24203141    -0.10500
C1478       C  0.47148577  0.35441044  0.21779345    -0.01400
C1479       C  0.46054396  0.33608271  0.21756646    -0.11600
C1480       C  0.44261684  0.33421762  0.23992631    -0.10000
H1481       H  0.44122011  0.38157754  0.28236664     0.07900
H1482       H  0.47243365  0.38501753  0.24255288     0.11600
H1483       H  0.46548098  0.32336462  0.19906080     0.11300
H1484       H  0.43443013  0.31993588  0.23870742     0.07900
C1485       C  0.31927655  0.36991419  0.32719253    -0.11200
C1486       C  0.30317229  0.35702734  0.31631307     0.05900
C1487       C  0.30745809  0.33670456  0.30613457    -0.10000
C1488       C  0.32682532  0.32860392  0.31272710    -0.11600
C1489       C  0.34210779  0.34056862  0.33102833    -0.01400
C1490       C  0.33887733  0.36188352  0.33269826    -0.10500
C1491       C  0.28168317  0.36348535  0.32080409     0.06000
H1492       H  0.29540362  0.32662203  0.29622845     0.07900
H1493       H  0.32912181  0.31263163  0.30607370     0.11300
H1494       H  0.35070154  0.37181849  0.34414546     0.11600
H1495       H  0.31641900  0.38582543  0.33399206     0.07900
C1496       C  0.27443719  0.37010548  0.35834948    -0.11200
C1497       C  0.25346932  0.37120407  0.36585814    -0.10500
C1498       C  0.23931368  0.36516225  0.33616052    -0.01400
C1499       C  0.24683805  0.36138547  0.29705751    -0.11600
C1500       C  0.26773334  0.35995959  0.28979019    -0.10000
H1501       H  0.28498453  0.37317809  0.38264518     0.07900
H1502       H  0.24855409  0.37601990  0.39538838     0.11600
H1503       H  0.23645455  0.35763487  0.27288159     0.11300
H1504       H  0.27299946  0.35508760  0.26044909     0.07900
loop_ 
_geom_bond_atom_site_label_1 
_geom_bond_atom_site_label_2 
_geom_bond_distance 
_geom_bond_site_symmetry_2 
_ccdc_geom_bond_type 
C1         C1429   1.564       .  S
C1         C1449   1.568       .  S
C1         C1469   1.556       .  S
C1         C1489   1.554       .  S
C2         C1378   1.558       .  S
C2         C1389   1.556       .  S
C2         C1409   1.556       .  S
C2         C1458   1.565       .  S
C3         C1318   1.558       .  S
C3         C1338   1.558       .  S
C3         C1349   1.552       .  S
C3         C1438   1.564       .  S
C4         C1278   1.553       .  S
C4         C1289   1.561       .  S
C4         C1329   1.556       .  S
C4         C1418   1.554       .  S
C5         C1209   1.567       .  S
C5         C1229   1.561       .  S
C5         C1258   1.556       .  S
C5         C1309   1.569       .  S
C6         C1169   1.550       .  S
C6         C1189   1.558       .  S
C6         C1238   1.558       .  S
C6         C1298   1.551       .  S
C7         C1129   1.555       .  S
C7         C1149   1.548       .  S
C7         C1218   1.558       .  S
C7         C1498   1.553       .  S
C8         C1109   1.555       .  S
C8         C1138   1.557       .  S
C8         C1198   1.568       .  S
C8         C1369   1.567       .  S
C9         C1029   1.562       .  S
C9         C1058   1.549       .  S
C9         C1078   1.550       .  S
C9         C1089   1.566       .  S
C10         C969   1.554       .  S
C10         C998   1.546       .  S
C10        C1009   1.561       .  S
C10        C1049   1.551       .  S
C11         C918   1.562       .  S
C11         C929   1.564       .  S
C11         C949   1.564       .  S
C11        C1098   1.570       .  S
C12         C869   1.569       .  S
C12         C889   1.545       .  S
C12         C909   1.572       .  S
C12         C978   1.579       .  S
C13         C809   1.562       .  S
C13         C829   1.553       .  S
C13         C849   1.552       .  S
C13         C958   1.560       .  S
C14         C769   1.561       .  S
C14         C798   1.555       .  S
C14         C818   1.574       .  S
C14         C878   1.563       .  S
C15         C729   1.553       .  S
C15         C749   1.545       .  S
C15         C858   1.551       .  S
C15        C1038   1.554       .  S
C16         C718   1.544       .  S
C16         C738   1.550       .  S
C16         C778   1.558       .  S
C16        C1018   1.555       .  S
In17         O19   2.276       .  S
In17         O20   2.263       .  S
In17         O28   2.275       .  S
In17         O22   2.237       .  S
In17         O24   2.241       .  S
In17         O25   2.229       .  S
In17         O26   2.245       .  S
In17         O29   2.288       .  S
C18          O24   1.262       .  A
C18          O26   1.261       .  A
C18         C689   1.474       .  S
O19          C27   1.259       .  A
O20          C27   1.257       .  A
C21          O28   1.266       .  A
C21          O22   1.259       .  A
C21         C669   1.484       .  S
C23          O25   1.255       .  A
C23          O29   1.264       .  A
C23         C989   1.483       .  S
C27         C649   1.486       .  S
In30         O32   2.261       .  S
In30         O33   2.273       .  S
In30         O41   2.267       .  S
In30         O35   2.235       .  S
In30         O37   2.240   1_455  S
In30         O38   2.274   1_455  S
In30         O39   2.256       .  S
In30         O42   2.253   1_455  S
C31          O37   1.260       .  A
C31          O39   1.262   1_655  A
C31         C698   1.476       .  S
O32          C40   1.258       .  A
O33          C40   1.260       .  A
C34          O41   1.265       .  A
C34          O35   1.261       .  A
C34         C638   1.482       .  S
C36          O38   1.261       .  A
C36          O42   1.255       .  A
C36        C1069   1.482       .  S
C40         C609   1.484       .  S
In43         O45   2.262       .  S
In43         O46   2.264       .  S
In43         O54   2.267       .  S
In43         O48   2.228       .  S
In43         O50   2.235   1_545  S
In43         O51   2.283   1_545  S
In43         O52   2.250       .  S
In43         O55   2.241   1_545  S
C44          O50   1.261       .  A
C44          O52   1.262   1_565  A
C44         C598   1.474       .  S
O45          C53   1.257       .  A
O46          C53   1.260       .  A
C47          O54   1.265       .  A
C47          O48   1.260       .  A
C47         C578   1.480       .  S
C49          O51   1.264       .  A
C49          O55   1.255       .  A
C49         C758   1.484       .  S
C53         C549   1.482       .  S
In56         O58   2.266       .  S
In56         O59   2.262       .  S
In56         O67   2.269       .  S
In56         O61   2.249       .  S
In56         O63   2.239   1_455  S
In56         O64   2.275   1_455  S
In56         O65   2.249       .  S
In56         O68   2.246   1_455  S
C57          O63   1.262       .  A
C57          O65   1.261   1_655  A
C57         C589   1.475       .  S
O58          C66   1.260       .  A
O59          C66   1.259       .  A
C60          O67   1.263       .  A
C60          O61   1.259       .  A
C60         C629   1.483       .  S
C62          O64   1.262       .  A
C62          O68   1.256       .  A
C62         C709   1.481       .  S
C66         C529   1.485       .  S
In69         O71   2.244       .  S
In69         O72   2.279       .  S
In69         O80   2.270       .  S
In69         O74   2.249       .  S
In69         O76   2.239       .  S
In69         O77   2.264       .  S
In69         O78   2.247       .  S
In69         O81   2.247       .  S
C70          O76   1.260       .  A
C70          O78   1.260       .  A
C70         C509   1.472       .  S
O71          C79   1.259       .  A
O72          C79   1.261       .  A
C73          O80   1.264       .  A
C73          O74   1.260       .  A
C73         C489   1.485       .  S
C75          O77   1.262       .  A
C75          O81   1.258       .  A
C75         C898   1.481       .  S
C79         C469   1.485       .  S
In82         O84   2.253       .  S
In82         O85   2.267       .  S
In82         O93   2.275       .  S
In82         O87   2.233       .  S
In82         O89   2.233       .  S
In82         O90   2.274       .  S
In82         O91   2.241       .  S
In82         O94   2.246       .  S
C83          O89   1.261       .  A
C83          O91   1.262       .  A
C83         C518   1.470       .  S
O84          C92   1.257       .  A
O85          C92   1.260       .  A
C86          O93   1.265       .  A
C86          O87   1.258       .  A
C86         C678   1.483       .  S
C88          O90   1.263       .  A
C88          O94   1.256       .  A
C88         C938   1.482       .  S
C92         C449   1.480       .  S
In95         O97   2.263       .  S
In95         O98   2.268       .  S
In95        O106   2.283       .  S
In95        O100   2.240       .  S
In95        O102   2.245       .  S
In95        O103   2.292       .  S
In95        O104   2.243       .  S
In95        O107   2.249       .  S
C96         O102   1.261       .  A
C96         O104   1.261       .  A
C96         C429   1.474       .  S
O97         C105   1.259       .  A
O98         C105   1.259       .  A
C99         O106   1.265       .  A
C99         O100   1.258       .  A
C99         C498   1.487       .  S
C101        O103   1.263       .  A
C101        O107   1.257       .  A
C101        C838   1.489       .  S
C105        C409   1.483       .  S
In108       O110   2.276       .  S
In108       O111   2.239       .  S
In108       O119   2.264       .  S
In108       O113   2.234       .  S
In108       O115   2.261       .  S
In108       O116   2.260   1_545  S
In108       O117   2.231   1_545  S
In108       O120   2.262   1_545  S
C109        O115   1.260   1_565  A
C109        O117   1.258       .  A
C109        C438   1.474       .  S
O110        C118   1.262       .  A
O111        C118   1.256       .  A
C112        O119   1.266       .  A
C112        O113   1.262       .  A
C112        C569   1.482       .  S
C114        O116   1.257       .  A
C114        O120   1.259       .  A
C114        C789   1.481       .  S
C118        C389   1.481       .  S
In121       O123   2.273       .  S
In121       O124   2.262       .  S
In121       O132   2.283       .  S
In121       O126   2.225       .  S
In121       O128   2.240       .  S
In121       O129   2.280       .  S
In121       O130   2.246       .  S
In121       O133   2.239       .  S
C122        O128   1.258       .  A
C122        O130   1.259       .  A
C122        C378   1.470       .  S
O123        C131   1.260       .  A
O124        C131   1.257       .  A
C125        O132   1.268       .  A
C125        O126   1.260       .  A
C125        C349   1.487       .  S
C127        O129   1.263       .  A
C127        O133   1.258       .  A
C127        C458   1.484       .  S
C131       C1478   1.486       .  S
In134       O136   2.245       .  S
In134       O137   2.272       .  S
In134       O145   2.279       .  S
In134       O139   2.231       .  S
In134       O141   2.237       .  S
In134       O142   2.292       .  S
In134       O143   2.247       .  S
In134       O146   2.238       .  S
C135        O141   1.259       .  A
C135        O143   1.259       .  A
C135        C369   1.472       .  S
O136        C144   1.259       .  A
O137        C144   1.263       .  A
C138        O145   1.265       .  A
C138        O139   1.259       .  A
C138        C329   1.484       .  S
C140        O142   1.264       .  A
C140        O146   1.257       .  A
C140        C478   1.488       .  S
C144       C1398   1.483       .  S
In147       O149   2.252       .  S
In147       O150   2.280       .  S
In147       O158   2.287       .  S
In147       O152   2.250       .  S
In147       O154   2.243       .  S
In147       O155   2.273       .  S
In147       O156   2.256       .  S
In147       O159   2.261       .  S
C148        O154   1.259       .  A
C148        O156   1.260       .  A
C148        C309   1.474       .  S
O149        C157   1.261       .  A
O150        C157   1.265       .  A
C151        O158   1.264       .  A
C151        O152   1.257       .  A
C151        C358   1.488       .  S
C153        O155   1.259       .  A
C153        O159   1.257       .  A
C153        C398   1.483       .  S
C157       C1269   1.492       .  S
In160       O162   2.237       .  S
In160       O163   2.275       .  S
In160       O171   2.282       .  S
In160       O165   2.241       .  S
In160       O167   2.233       .  S
In160       O168   2.286       .  S
In160       O169   2.252       .  S
In160       O172   2.243       .  S
C161        O167   1.261       .  A
C161        O169   1.262       .  A
C161        C318   1.474       .  S
O162        C170   1.259       .  A
O163        C170   1.266       .  A
C164        O171   1.263       .  A
C164        O165   1.258       .  A
C164        C289   1.485       .  S
C166        O168   1.263   1_565  A
C166        O172   1.257   1_565  A
C166        C418   1.486       .  S
C170       C1358   1.486       .  S
In173       O175   2.248       .  S
In173       O176   2.282       .  S
In173       O184   2.285       .  S
In173       O178   2.239       .  S
In173       O180   2.237       .  S
In173       O181   2.279       .  S
In173       O182   2.251       .  S
In173       O185   2.261       .  S
C174        O180   1.259       .  A
C174        O182   1.260       .  A
C174        C269   1.474       .  S
O175        C183   1.260       .  A
O176        C183   1.266       .  A
C177        O184   1.265       .  A
C177        O178   1.258       .  A
C177        C249   1.487       .  S
C179        O181   1.262       .  A
C179        O185   1.257       .  A
C179        C558   1.488   1_455  S
C183       C1249   1.490       .  S
In186       O188   2.250       .  S
In186       O189   2.277       .  S
In186       O197   2.287       .  S
In186       O191   2.241       .  S
In186       O193   2.234       .  S
In186       O194   2.287       .  S
In186       O195   2.249       .  S
In186       O198   2.264   1_545  S
C187        O193   1.260       .  A
C187        O195   1.262       .  A
C187        C278   1.473       .  S
O188        C196   1.258       .  A
O189        C196   1.265       .  A
C190        O197   1.264       .  A
C190        O191   1.258       .  A
C190        C298   1.486       .  S
C192        O194   1.259   1_565  A
C192        O198   1.257       .  A
C192        C538   1.489       .  S
C196       C1178   1.486       .  S
In199       O201   2.253       .  S
In199       O202   2.273       .  S
In199       O210   2.273       .  S
In199       O204   2.250       .  S
In199       O206   2.233       .  S
In199       O207   2.291       .  S
In199       O208   2.242       .  S
In199       O211   2.254       .  S
C200        O206   1.260       .  A
C200        O208   1.262       .  A
C200        C229   1.469       .  S
O201        C209   1.258       .  A
O202        C209   1.266       .  A
C203        O210   1.263       .  A
C203        O204   1.258       .  A
C203        C338   1.485       .  S
C205        O207   1.260       .  A
C205        O211   1.256       .  A
C205        C618   1.488       .  S
C209       C1158   1.486       .  S
In212       O214   2.247       .  S
In212       O215   2.285       .  S
In212       O223   2.292       .  S
In212       O217   2.237       .  S
In212       O219   2.227       .  S
In212       O220   2.293       .  S
In212       O221   2.250       .  S
In212       O224   2.246       .  S
C213        O219   1.260       .  A
C213        O221   1.263       .  A
C213        C238   1.471       .  S
O214        C222   1.258       .  A
O215        C222   1.264       .  A
C216        O223   1.264       .  A
C216        O217   1.256       .  A
C216        C258   1.486       .  S
C218        O220   1.262       .  A
C218        O224   1.257       .  A
C218        C658   1.488   1_455  S
C222       C1118   1.488       .  S
C225        C226   1.404   1_554  A
C225        C230   1.395       .  A
C225        H235   1.083       .  S
C226        C231   1.475       .  S
C226        C227   1.404       .  A
C227        C228   1.395   1_556  A
C227        H232   1.083       .  S
C228        C229   1.404       .  A
C228        H233   1.083   1_554  S
C229        C230   1.403       .  A
C230        H234   1.083       .  S
C231        C236   1.403       .  A
C231        C240   1.404       .  A
C236        C237   1.394       .  A
C236        H241   1.083   1_556  S
C237        C238   1.404       .  A
C237        H242   1.083       .  S
C238        C239   1.403       .  A
C239        C240   1.397       .  A
C239        H243   1.083       .  S
C240        H244   1.083       .  S
C245        C246   1.410       .  A
C245        C250   1.405       .  A
C245        H255   1.083       .  S
C246        C251   1.494   1_554  S
C246        C247   1.405   1_554  A
C247        C248   1.400   1_556  A
C247        H252   1.083       .  S
C248        C249   1.407       .  A
C248        H253   1.083       .  S
C249        C250   1.405       .  A
C250        H254   1.083       .  S
C251        C256   1.410       .  A
C251        C260   1.405   1_556  A
C256        C257   1.406       .  A
C256        H261   1.083       .  S
C257        C258   1.405       .  A
C257        H262   1.083       .  S
C258        C259   1.407       .  A
C259        C260   1.399   1_556  A
C259        H263   1.083       .  S
C260        H264   1.083       .  S
C265        C266   1.406       .  A
C265        C270   1.395       .  A
C265        H275   1.083   1_554  S
C266        C271   1.485       .  S
C266        C267   1.407       .  A
C267        C268   1.398       .  A
C267        H272   1.083       .  S
C268        C269   1.404       .  A
C268        H273   1.083       .  S
C269        C270   1.403       .  A
C270        H274   1.083       .  S
C271        C276   1.407   1_554  A
C271        C280   1.406       .  A
C276        C277   1.397       .  A
C276        H281   1.083       .  S
C277        C278   1.403       .  A
C277        H282   1.083       .  S
C278        C279   1.404       .  A
C279        C280   1.396   1_556  A
C279        H283   1.083   1_556  S
C280        H284   1.083       .  S
C285        C286   1.407   1_556  A
C285        C290   1.399   1_556  A
C285        H295   1.082       .  S
C286        C291   1.500   1_554  S
C286        C287   1.412       .  A
C287        C288   1.405       .  A
C287        H292   1.082       .  S
C288        C289   1.404       .  A
C288        H293   1.083       .  S
C289        C290   1.405       .  A
C290        H294   1.083       .  S
C291        C296   1.412       .  A
C291        C300   1.407   1_556  A
C296        C297   1.405       .  A
C296        H301   1.082       .  S
C297        C298   1.404       .  A
C297        H302   1.083       .  S
C298        C299   1.406       .  A
C299        C300   1.400   1_556  A
C299        H303   1.083       .  S
C300        H304   1.082       .  S
C305        C306   1.406       .  A
C305        C310   1.397       .  A
C305        H315   1.083       .  S
C306        C311   1.481   1_556  S
C306        C307   1.404   1_556  A
C307        C308   1.397   1_554  A
C307        H312   1.083       .  S
C308        C309   1.404       .  A
C308        H313   1.083   1_556  S
C309        C310   1.403       .  A
C310        H314   1.083       .  S
C311        C316   1.404       .  A
C311        C320   1.406       .  A
C316        C317   1.395       .  A
C316        H321   1.083   1_554  S
C317        C318   1.403       .  A
C317        H322   1.083       .  S
C318        C319   1.405       .  A
C319        C320   1.399       .  A
C319        H323   1.083       .  S
C320        H324   1.083       .  S
C325        C326   1.412       .  A
C325        C330   1.406       .  A
C325        H335   1.082       .  S
C326        C331   1.499   1_556  S
C326        C327   1.407       .  A
C327        C328   1.397       .  A
C327        H332   1.082   1_556  S
C328        C329   1.404       .  A
C328        H333   1.083       .  S
C329        C330   1.405       .  A
C330        H334   1.083       .  S
C331        C336   1.408   1_554  A
C331        C340   1.411       .  A
C336        C337   1.403   1_556  A
C336        H341   1.082       .  S
C337        C338   1.407       .  A
C337        H342   1.083   1_554  S
C338        C339   1.402       .  A
C339        C340   1.400       .  A
C339        H343   1.083       .  S
C340        H344   1.082       .  S
C345        C346   1.411       .  A
C345        C350   1.408       .  A
C345        H355   1.083       .  S
C346        C351   1.497   1_554  S
C346        C347   1.405       .  A
C347        C348   1.397       .  A
C347        H352   1.083   1_554  S
C348        C349   1.406       .  A
C348        H353   1.083       .  S
C349        C350   1.406       .  A
C350        H354   1.083       .  S
C351        C356   1.410       .  A
C351        C360   1.406   1_556  A
C356        C357   1.403       .  A
C356        H361   1.083       .  S
C357        C358   1.404       .  A
C357        H362   1.083       .  S
C358        C359   1.408       .  A
C359        C360   1.402   1_556  A
C359        H363   1.083       .  S
C360        H364   1.083       .  S
C365        C366   1.405   1_554  A
C365        C370   1.395   1_554  A
C365        H375   1.083       .  S
C366        C371   1.481   1_556  S
C366        C367   1.406       .  A
C367        C368   1.396       .  A
C367        H372   1.083       .  S
C368        C369   1.403       .  A
C368        H373   1.083       .  S
C369        C370   1.403       .  A
C370        H374   1.083       .  S
C371        C376   1.406       .  A
C371        C380   1.405   1_554  A
C376        C377   1.396       .  A
C376        H381   1.083       .  S
C377        C378   1.403       .  A
C377        H382   1.083       .  S
C378        C379   1.403       .  A
C379        C380   1.395   1_554  A
C379        H383   1.083       .  S
C380        H384   1.083       .  S
C385        C386   1.407       .  A
C385        C390   1.398       .  A
C385        H395   1.083       .  S
C386        C391   1.495       .  S
C386        C387   1.409       .  A
C387        C388   1.402       .  A
C387        H392   1.082       .  S
C388        C389   1.404       .  A
C388        H393   1.083       .  S
C389        C390   1.405       .  A
C390        H394   1.083       .  S
C391        C396   1.408       .  A
C391        C400   1.408       .  A
C396        C397   1.402       .  A
C396        H401   1.083       .  S
C397        C398   1.405       .  A
C397        H402   1.083       .  S
C398        C399   1.405       .  A
C399        C400   1.400       .  A
C399        H403   1.083       .  S
C400        H404   1.083       .  S
C405        C406   1.410       .  A
C405        C410   1.400       .  A
C405        H415   1.082       .  S
C406        C411   1.499       .  S
C406        C407   1.409       .  A
C407        C408   1.403       .  A
C407        H412   1.082       .  S
C408        C409   1.405       .  A
C408        H413   1.083       .  S
C409        C410   1.403       .  A
C410        H414   1.083       .  S
C411        C416   1.408       .  A
C411        C420   1.411       .  A
C416        C417   1.397       .  A
C416        H421   1.082       .  S
C417        C418   1.405       .  A
C417        H422   1.083       .  S
C418        C419   1.406       .  A
C419        C420   1.406       .  A
C419        H423   1.083       .  S
C420        H424   1.082       .  S
C425        C426   1.408       .  A
C425        C430   1.397       .  A
C425        H435   1.083       .  S
C426        C431   1.486       .  S
C426        C427   1.405   1_556  A
C427        C428   1.397       .  A
C427        H432   1.082       .  S
C428        C429   1.404       .  A
C428        H433   1.083       .  S
C429        C430   1.403   1_554  A
C430        H434   1.083       .  S
C431        C436   1.405       .  A
C431        C440   1.408       .  A
C436        C437   1.393       .  A
C436        H441   1.083       .  S
C437        C438   1.402       .  A
C437        H442   1.083       .  S
C438        C439   1.405       .  A
C439        C440   1.401       .  A
C439        H443   1.083       .  S
C440        H444   1.083   1_556  S
C445        C446   1.406       .  A
C445        C450   1.401       .  A
C445        H455   1.083       .  S
C446        C451   1.489       .  S
C446        C447   1.407       .  A
C447        C448   1.400       .  A
C447        H452   1.083       .  S
C448        C449   1.405       .  A
C448        H453   1.083       .  S
C449        C450   1.404       .  A
C450        H454   1.083       .  S
C451        C456   1.408       .  A
C451        C460   1.405       .  A
C456        C457   1.405       .  A
C456        H461   1.083       .  S
C457        C458   1.406       .  A
C457        H462   1.083       .  S
C458        C459   1.405       .  A
C459        C460   1.397       .  A
C459        H463   1.083       .  S
C460        H464   1.083       .  S
C465        C466   1.405       .  A
C465        C470   1.397       .  A
C465        H475   1.083       .  S
C466        C471   1.492       .  S
C466        C467   1.408       .  A
C467        C468   1.407       .  A
C467        H472   1.083       .  S
C468        C469   1.408       .  A
C468        H473   1.083       .  S
C469        C470   1.404       .  A
C470        H474   1.083       .  S
C471        C476   1.405       .  A
C471        C480   1.408       .  A
C476        C477   1.397       .  A
C476        H481   1.083       .  S
C477        C478   1.406       .  A
C477        H482   1.083       .  S
C478        C479   1.407       .  A
C479        C480   1.408       .  A
C479        H483   1.083       .  S
C480        H484   1.083       .  S
C485        C486   1.408       .  A
C485        C490   1.400       .  A
C485        H495   1.082   1_556  S
C486        C491   1.499       .  S
C486        C487   1.411       .  A
C487        C488   1.404       .  A
C487        H492   1.082       .  S
C488        C489   1.405       .  A
C488        H493   1.083       .  S
C489        C490   1.405       .  A
C490        H494   1.083       .  S
C491        C496   1.411   1_556  A
C491        C500   1.407       .  A
C496        C497   1.404       .  A
C496        H501   1.082       .  S
C497        C498   1.404       .  A
C497        H502   1.083       .  S
C498        C499   1.406       .  A
C499        C500   1.399   1_554  A
C499        H503   1.083   1_554  S
C500        H504   1.082       .  S
C505        C506   1.406       .  A
C505        C510   1.398       .  A
C505        H515   1.083       .  S
C506        C511   1.481   1_556  S
C506        C507   1.405       .  A
C507        C508   1.394       .  A
C507        H512   1.083       .  S
C508        C509   1.402       .  A
C508        H513   1.083       .  S
C509        C510   1.404       .  A
C510        H514   1.083       .  S
C511        C516   1.405       .  A
C511        C520   1.406       .  A
C516        C517   1.396       .  A
C516        H521   1.083       .  S
C517        C518   1.403       .  A
C517        H522   1.083       .  S
C518        C519   1.402       .  A
C519        C520   1.395       .  A
C519        H523   1.083       .  S
C520        H524   1.083   1_554  S
C525        C526   1.410       .  A
C525        C530   1.402       .  A
C525        H535   1.082       .  S
C526        C531   1.502       .  S
C526        C527   1.410       .  A
C527        C528   1.402       .  A
C527        H532   1.082       .  S
C528        C529   1.404       .  A
C528        H533   1.083       .  S
C529        C530   1.405       .  A
C530        H534   1.083       .  S
C531        C536   1.411       .  A
C531        C540   1.409       .  A
C536        C537   1.406       .  A
C536        H541   1.082       .  S
C537        C538   1.406       .  A
C537        H542   1.083       .  S
C538        C539   1.405       .  A
C539        C540   1.400       .  A
C539        H543   1.083       .  S
C540        H544   1.082       .  S
C545        C546   1.410       .  A
C545        C550   1.404       .  A
C545        H555   1.082       .  S
C546        C551   1.500       .  S
C546        C547   1.409       .  A
C547        C548   1.398       .  A
C547        H552   1.082       .  S
C548        C549   1.402       .  A
C548        H553   1.083       .  S
C549        C550   1.406       .  A
C550        H554   1.083       .  S
C551        C556   1.409       .  A
C551        C560   1.410       .  A
C556        C557   1.403       .  A
C556        H561   1.082       .  S
C557        C558   1.407       .  A
C557        H562   1.083       .  S
C558        C559   1.404       .  A
C559        C560   1.402       .  A
C559        H563   1.083       .  S
C560        H564   1.082       .  S
C565        C566   1.410       .  A
C565        C570   1.402       .  A
C565        H575   1.083       .  S
C566        C571   1.492   1_556  S
C566        C567   1.406   1_556  A
C567        C568   1.397   1_554  A
C567        H572   1.083       .  S
C568        C569   1.405       .  A
C568        H573   1.083   1_545  S
C569        C570   1.404       .  A
C570        H574   1.083       .  S
C571        C576   1.405   1_554  A
C571        C580   1.410       .  A
C576        C577   1.396   1_556  A
C576        H581   1.082       .  S
C577        C578   1.405       .  A
C577        H582   1.083       .  S
C578        C579   1.404       .  A
C579        C580   1.402       .  A
C579        H583   1.083       .  S
C580        H584   1.083       .  S
C585        C586   1.407       .  A
C585        C590   1.395       .  A
C585        H595   1.082   1_556  S
C586        C591   1.487   1_556  S
C586        C587   1.407       .  A
C587        C588   1.399       .  A
C587        H592   1.083       .  S
C588        C589   1.405       .  A
C588        H593   1.083       .  S
C589        C590   1.402       .  A
C590        H594   1.083       .  S
C591        C596   1.407       .  A
C591        C600   1.407       .  A
C596        C597   1.395       .  A
C596        H601   1.083   1_554  S
C597        C598   1.403       .  A
C597        H602   1.083       .  S
C598        C599   1.404       .  A
C599        C600   1.399       .  A
C599        H603   1.083       .  S
C600        H604   1.082       .  S
C605        C606   1.410       .  A
C605        C610   1.401       .  A
C605        H615   1.082       .  S
C606        C611   1.501       .  S
C606        C607   1.409       .  A
C607        C608   1.403       .  A
C607        H612   1.082       .  S
C608        C609   1.405       .  A
C608        H613   1.083       .  S
C609        C610   1.404       .  A
C610        H614   1.083       .  S
C611        C616   1.408       .  A
C611        C620   1.412       .  A
C616        C617   1.398       .  A
C616        H621   1.082       .  S
C617        C618   1.404       .  A
C617        H622   1.083       .  S
C618        C619   1.406       .  A
C619        C620   1.407       .  A
C619        H623   1.083       .  S
C620        H624   1.082       .  S
C625        C626   1.407   1_554  A
C625        C630   1.399   1_554  A
C625        H635   1.082       .  S
C626        C631   1.495   1_556  S
C626        C627   1.410       .  A
C627        C628   1.402       .  A
C627        H632   1.082       .  S
C628        C629   1.404       .  A
C628        H633   1.083       .  S
C629        C630   1.405       .  A
C630        H634   1.083   1_556  S
C631        C636   1.410       .  A
C631        C640   1.406   1_554  A
C636        C637   1.403       .  A
C636        H641   1.083       .  S
C637        C638   1.405       .  A
C637        H642   1.083       .  S
C638        C639   1.405       .  A
C639        C640   1.397   1_554  A
C639        H643   1.083       .  S
C640        H644   1.082       .  S
C645        C646   1.408       .  A
C645        C650   1.403       .  A
C645        H655   1.083       .  S
C646        C651   1.493       .  S
C646        C647   1.406       .  A
C647        C648   1.402       .  A
C647        H652   1.083       .  S
C648        C649   1.407       .  A
C648        H653   1.083       .  S
C649        C650   1.405       .  A
C650        H654   1.083       .  S
C651        C656   1.405       .  A
C651        C660   1.409       .  A
C656        C657   1.398       .  A
C656        H661   1.083       .  S
C657        C658   1.406       .  A
C657        H662   1.083       .  S
C658        C659   1.407       .  A
C659        C660   1.407       .  A
C659        H663   1.083       .  S
C660        H664   1.083       .  S
C665        C666   1.409       .  A
C665        C670   1.403       .  A
C665        H675   1.083       .  S
C666        C671   1.491   1_556  S
C666        C667   1.405   1_556  A
C667        C668   1.398   1_554  A
C667        H672   1.083       .  S
C668        C669   1.406       .  A
C668        H673   1.083   1_556  S
C669        C670   1.404       .  A
C670        H674   1.083       .  S
C671        C676   1.405       .  A
C671        C680   1.409       .  A
C676        C677   1.398       .  A
C676        H681   1.083   1_554  S
C677        C678   1.406       .  A
C677        H682   1.083       .  S
C678        C679   1.404       .  A
C679        C680   1.403       .  A
C679        H683   1.083       .  S
C680        H684   1.083       .  S
C685        C686   1.408       .  A
C685        C690   1.398       .  A
C685        H695   1.083   1_556  S
C686        C691   1.487   1_556  S
C686        C687   1.406       .  A
C687        C688   1.396       .  A
C687        H692   1.083       .  S
C688        C689   1.403       .  A
C688        H693   1.083       .  S
C689        C690   1.404       .  A
C690        H694   1.083       .  S
C691        C696   1.406       .  A
C691        C700   1.407       .  A
C696        C697   1.397       .  A
C696        H701   1.083   1_554  S
C697        C698   1.404       .  A
C697        H702   1.083       .  S
C698        C699   1.404       .  A
C699        C700   1.399       .  A
C699        H703   1.083       .  S
C700        H704   1.083       .  S
C705        C706   1.407       .  A
C705        C710   1.399       .  A
C705        H715   1.082       .  S
C706        C711   1.494       .  S
C706        C707   1.410       .  A
C707        C708   1.401       .  A
C707        H712   1.082       .  S
C708        C709   1.403       .  A
C708        H713   1.083       .  S
C709        C710   1.405       .  A
C710        H714   1.083       .  S
C711        C716   1.408       .  A
C711        C720   1.404       .  A
C716        C717   1.401       .  A
C716        H721   1.082       .  S
C717        C718   1.410       .  A
C717        H722   1.081       .  S
C718        C719   1.412       .  A
C719        C720   1.397       .  A
C719        H723   1.083       .  S
C720        H724   1.083       .  S
C725        C726   1.406       .  A
C725        C730   1.401       .  A
C725        H735   1.082       .  S
C726        C731   1.493       .  S
C726        C727   1.404       .  A
C727        C728   1.392       .  A
C727        H732   1.082       .  S
C728        C729   1.414       .  A
C728        H733   1.082       .  S
C729        C730   1.415       .  A
C730        H734   1.081       .  S
C731        C736   1.405       .  A
C731        C740   1.405       .  A
C736        C737   1.393       .  A
C736        H741   1.082       .  S
C737        C738   1.412       .  A
C737        H742   1.082       .  S
C738        C739   1.416       .  A
C739        C740   1.400       .  A
C739        H743   1.081       .  S
C740        H744   1.082       .  S
C745        C746   1.408       .  A
C745        C750   1.405       .  A
C745        H755   1.083       .  S
C746        C751   1.492       .  S
C746        C747   1.402       .  A
C747        C748   1.396       .  A
C747        H752   1.083       .  S
C748        C749   1.411       .  A
C748        H753   1.083       .  S
C749        C750   1.412       .  A
C750        H754   1.081       .  S
C751        C756   1.404       .  A
C751        C760   1.409       .  A
C756        C757   1.401       .  A
C756        H761   1.083       .  S
C757        C758   1.408       .  A
C757        H762   1.083       .  S
C758        C759   1.403       .  A
C759        C760   1.402       .  A
C759        H763   1.083       .  S
C760        H764   1.083       .  S
C765        C766   1.404       .  A
C765        C770   1.395       .  A
C765        H775   1.083       .  S
C766        C771   1.491       .  S
C766        C767   1.404       .  A
C767        C768   1.404       .  A
C767        H772   1.083       .  S
C768        C769   1.418       .  A
C768        H773   1.079       .  S
C769        C770   1.413       .  A
C770        H774   1.083       .  S
C771        C776   1.402       .  A
C771        C780   1.404       .  A
C776        C777   1.393       .  A
C776        H781   1.083       .  S
C777        C778   1.415       .  A
C777        H782   1.079       .  S
C778        C779   1.417       .  A
C779        C780   1.404       .  A
C779        H783   1.082       .  S
C780        H784   1.083       .  S
C785        C786   1.407       .  A
C785        C790   1.403       .  A
C785        H795   1.083       .  S
C786        C791   1.493       .  S
C786        C787   1.409       .  A
C787        C788   1.398       .  A
C787        H792   1.083       .  S
C788        C789   1.402       .  A
C788        H793   1.083       .  S
C789        C790   1.407       .  A
C790        H794   1.083       .  S
C791        C796   1.407       .  A
C791        C800   1.402       .  A
C796        C797   1.407       .  A
C796        H801   1.083       .  S
C797        C798   1.415       .  A
C797        H802   1.078       .  S
C798        C799   1.414       .  A
C799        C800   1.393       .  A
C799        H803   1.083       .  S
C800        H804   1.083       .  S
C805        C806   1.409       .  A
C805        C810   1.396       .  A
C805        H815   1.082       .  S
C806        C811   1.504       .  S
C806        C807   1.406       .  A
C807        C808   1.407       .  A
C807        H812   1.082       .  S
C808        C809   1.417       .  A
C808        H813   1.083       .  S
C809        C810   1.413       .  A
C810        H814   1.079       .  S
C811        C816   1.400       .  A
C811        C820   1.411       .  A
C816        C817   1.390       .  A
C816        H821   1.082       .  S
C817        C818   1.419       .  A
C817        H822   1.073       .  S
C818        C819   1.416       .  A
C819        C820   1.412       .  A
C819        H823   1.083       .  S
C820        H824   1.082       .  S
C825        C826   1.405       .  A
C825        C830   1.399       .  A
C825        H835   1.083       .  S
C826        C831   1.499       .  S
C826        C827   1.407       .  A
C827        C828   1.406       .  A
C827        H832   1.083       .  S
C828        C829   1.415       .  A
C828        H833   1.080       .  S
C829        C830   1.412       .  A
C830        H834   1.083       .  S
C831        C836   1.406       .  A
C831        C840   1.410       .  A
C836        C837   1.399       .  A
C836        H841   1.083       .  S
C837        C838   1.406       .  A
C837        H842   1.083       .  S
C838        C839   1.406       .  A
C839        C840   1.407       .  A
C839        H843   1.083       .  S
C840        H844   1.083       .  S
C845        C846   1.395       .  A
C845        C850   1.386       .  A
C845        H855   1.084       .  S
C846        C851   1.475       .  S
C846        C847   1.404       .  A
C847        C848   1.409       .  A
C847        H852   1.083       .  S
C848        C849   1.417       .  A
C848        H853   1.081       .  S
C849        C850   1.414       .  A
C850        H854   1.082       .  S
C851        C856   1.402       .  A
C851        C860   1.400       .  A
C856        C857   1.397       .  A
C856        H861   1.083       .  S
C857        C858   1.411       .  A
C857        H862   1.081       .  S
C858        C859   1.414       .  A
C859        C860   1.400       .  A
C859        H863   1.083       .  S
C860        H864   1.083       .  S
C865        C866   1.404       .  A
C865        C870   1.390       .  A
C865        H875   1.083       .  S
C866        C871   1.489       .  S
C866        C867   1.403       .  A
C867        C868   1.405       .  A
C867        H872   1.083       .  S
C868        C869   1.421       .  A
C868        H873   1.079       .  S
C869        C870   1.414       .  A
C870        H874   1.084       .  S
C871        C876   1.402       .  A
C871        C880   1.408       .  A
C876        C877   1.391       .  A
C876        H881   1.083       .  S
C877        C878   1.414       .  A
C877        H882   1.080       .  S
C878        C879   1.415       .  A
C879        C880   1.406       .  A
C879        H883   1.083       .  S
C880        H884   1.082       .  S
C885        C886   1.405       .  A
C885        C890   1.400       .  A
C885        H895   1.083       .  S
C886        C891   1.486       .  S
C886        C887   1.401       .  A
C887        C888   1.395       .  A
C887        H892   1.083       .  S
C888        C889   1.414       .  A
C888        H893   1.083       .  S
C889        C890   1.412       .  A
C890        H894   1.081       .  S
C891        C896   1.404       .  A
C891        C900   1.407       .  A
C896        C897   1.399       .  A
C896        H901   1.083       .  S
C897        C898   1.407       .  A
C897        H902   1.083       .  S
C898        C899   1.404       .  A
C899        C900   1.399       .  A
C899        H903   1.083       .  S
C900        H904   1.083       .  S
C905        C906   1.402       .  A
C905        C910   1.401       .  A
C905        H915   1.080       .  S
C906        C911   1.495       .  S
C906        C907   1.406       .  A
C907        C908   1.395       .  A
C907        H912   1.083       .  S
C908        C909   1.414       .  A
C908        H913   1.077       .  S
C909        C910   1.417       .  A
C910        H914   1.085       .  S
C911        C916   1.410       .  A
C911        C920   1.401       .  A
C916        C917   1.409       .  A
C916        H921   1.082       .  S
C917        C918   1.416       .  A
C917        H922   1.076       .  S
C918        C919   1.415       .  A
C919        C920   1.386       .  A
C919        H923   1.083       .  S
C920        H924   1.081       .  S
C925        C926   1.399       .  A
C925        C930   1.391       .  A
C925        H935   1.084       .  S
C926        C931   1.494       .  S
C926        C927   1.408       .  A
C927        C928   1.409       .  A
C927        H932   1.082       .  S
C928        C929   1.416       .  A
C928        H933   1.083       .  S
C929        C930   1.417       .  A
C930        H934   1.077       .  S
C931        C936   1.405       .  A
C931        C940   1.410       .  A
C936        C937   1.403       .  A
C936        H941   1.083       .  S
C937        C938   1.409       .  A
C937        H942   1.083       .  S
C938        C939   1.401       .  A
C939        C940   1.399       .  A
C939        H943   1.083       .  S
C940        H944   1.083       .  S
C945        C946   1.410       .  A
C945        C950   1.408       .  A
C945        H955   1.082       .  S
C946        C951   1.491       .  S
C946        C947   1.399       .  A
C947        C948   1.389       .  A
C947        H952   1.083       .  S
C948        C949   1.419       .  A
C948        H953   1.079       .  S
C949        C950   1.412       .  A
C950        H954   1.083       .  S
C951        C956   1.403       .  A
C951        C960   1.407       .  A
C956        C957   1.400       .  A
C956        H961   1.083       .  S
C957        C958   1.417       .  A
C957        H962   1.080       .  S
C958        C959   1.412       .  A
C959        C960   1.399       .  A
C959        H963   1.083       .  S
C960        H964   1.083       .  S
C965        C966   1.404       .  A
C965        C970   1.395       .  A
C965        H975   1.083       .  S
C966        C971   1.485       .  S
C966        C967   1.402       .  A
C967        C968   1.401       .  A
C967        H972   1.083       .  S
C968        C969   1.415       .  A
C968        H973   1.083       .  S
C969        C970   1.412       .  A
C970        H974   1.081       .  S
C971        C976   1.402       .  A
C971        C980   1.398       .  A
C976        C977   1.402       .  A
C976        H981   1.081       .  S
C977        C978   1.421       .  A
C977        H982   1.081       .  S
C978        C979   1.418       .  A
C979        C980   1.397       .  A
C979        H983   1.059       .  S
C980        H984   1.083       .  S
C985        C986   1.410       .  A
C985        C990   1.404       .  A
C985        H995   1.083       .  S
C986        C991   1.491       .  S
C986        C987   1.404       .  A
C987        C988   1.396       .  A
C987        H992   1.083       .  S
C988        C989   1.406       .  A
C988        H993   1.083       .  S
C989        C990   1.404       .  A
C990        H994   1.083       .  S
C991        C996   1.402       .  A
C991       C1000   1.407       .  A
C996        C997   1.398       .  A
C996       H1001   1.083       .  S
C997        C998   1.414       .  A
C997       H1002   1.083       .  S
C998        C999   1.410       .  A
C999       C1000   1.400       .  A
C999       H1003   1.080       .  S
C1000      H1004   1.083       .  S
C1005      C1006   1.401       .  A
C1005      C1010   1.402       .  A
C1005      H1015   1.083       .  S
C1006      C1011   1.483       .  S
C1006      C1007   1.400       .  A
C1007      C1008   1.395       .  A
C1007      H1012   1.084       .  S
C1008      C1009   1.416       .  A
C1008      H1013   1.077       .  S
C1009      C1010   1.418       .  A
C1010      H1014   1.083       .  S
C1011      C1016   1.405       .  A
C1011      C1020   1.400       .  A
C1016      C1017   1.402       .  A
C1016      H1021   1.083       .  S
C1017      C1018   1.413       .  A
C1017      H1022   1.081       .  S
C1018      C1019   1.414       .  A
C1019      C1020   1.396       .  A
C1019      H1023   1.083       .  S
C1020      H1024   1.083       .  S
C1025      C1026   1.399       .  A
C1025      C1030   1.399       .  A
C1025      H1035   1.083       .  S
C1026      C1031   1.487       .  S
C1026      C1027   1.404       .  A
C1027      C1028   1.399       .  A
C1027      H1032   1.083       .  S
C1028      C1029   1.415       .  A
C1028      H1033   1.083       .  S
C1029      C1030   1.419       .  A
C1030      H1034   1.078       .  S
C1031      C1036   1.404       .  A
C1031      C1040   1.400       .  A
C1036      C1037   1.402       .  A
C1036      H1041   1.083       .  S
C1037      C1038   1.415       .  A
C1037      H1042   1.082       .  S
C1038      C1039   1.418       .  A
C1039      C1040   1.395       .  A
C1039      H1043   1.080       .  S
C1040      H1044   1.083       .  S
C1045      C1046   1.402       .  A
C1045      C1050   1.389       .  A
C1045      H1055   1.083       .  S
C1046      C1051   1.483       .  S
C1046      C1047   1.403       .  A
C1047      C1048   1.401       .  A
C1047      H1052   1.083       .  S
C1048      C1049   1.416       .  A
C1048      H1053   1.080       .  S
C1049      C1050   1.413       .  A
C1050      H1054   1.083       .  S
C1051      C1056   1.407       .  A
C1051      C1060   1.401       .  A
C1056      C1057   1.396       .  A
C1056      H1061   1.083       .  S
C1057      C1058   1.408       .  A
C1057      H1062   1.080       .  S
C1058      C1059   1.417       .  A
C1059      C1060   1.396       .  A
C1059      H1063   1.083       .  S
C1060      H1064   1.083       .  S
C1065      C1066   1.409       .  A
C1065      C1070   1.399       .  A
C1065      H1075   1.083       .  S
C1066      C1071   1.491       .  S
C1066      C1067   1.406       .  A
C1067      C1068   1.401       .  A
C1067      H1072   1.083       .  S
C1068      C1069   1.407       .  A
C1068      H1073   1.083       .  S
C1069      C1070   1.403       .  A
C1070      H1074   1.083       .  S
C1071      C1076   1.402       .  A
C1071      C1080   1.408       .  A
C1076      C1077   1.394       .  A
C1076      H1081   1.083       .  S
C1077      C1078   1.414       .  A
C1077      H1082   1.083       .  S
C1078      C1079   1.411       .  A
C1079      C1080   1.404       .  A
C1079      H1083   1.079       .  S
C1080      H1084   1.083       .  S
C1085      C1086   1.395       .  A
C1085      C1090   1.389       .  A
C1085      H1095   1.084       .  S
C1086      C1091   1.487       .  S
C1086      C1087   1.407       .  A
C1087      C1088   1.407       .  A
C1087      H1092   1.083       .  S
C1088      C1089   1.414       .  A
C1088      H1093   1.083       .  S
C1089      C1090   1.423       .  A
C1090      H1094   1.077       .  S
C1091      C1096   1.404       .  A
C1091      C1100   1.400       .  A
C1096      C1097   1.398       .  A
C1096      H1101   1.083       .  S
C1097      C1098   1.417       .  A
C1097      H1102   1.083       .  S
C1098      C1099   1.417       .  A
C1099      C1100   1.399       .  A
C1099      H1103   1.074       .  S
C1100      H1104   1.083       .  S
C1105      C1106   1.406       .  A
C1105      C1110   1.399       .  A
C1105      H1115   1.082       .  S
C1106      C1111   1.502       .  S
C1106      C1107   1.410       .  A
C1107      C1108   1.403       .  A
C1107      H1112   1.082       .  S
C1108      C1109   1.410       .  A
C1108      H1113   1.079       .  S
C1109      C1110   1.415       .  A
C1110      H1114   1.083       .  S
C1111      C1116   1.412       .  A
C1111      C1120   1.408       .  A
C1116      C1117   1.406       .  A
C1116      H1121   1.082       .  S
C1117      C1118   1.405       .  A
C1117      H1122   1.083       .  S
C1118      C1119   1.405       .  A
C1119      C1120   1.400       .  A
C1119      H1123   1.083       .  S
C1120      H1124   1.082       .  S
C1125      C1126   1.405       .  A
C1125      C1130   1.408       .  A
C1125      H1135   1.083       .  S
C1126      C1131   1.486       .  S
C1126      C1127   1.399       .  A
C1127      C1128   1.390       .  A
C1127      H1132   1.084       .  S
C1128      C1129   1.413       .  A
C1128      H1133   1.082       .  S
C1129      C1130   1.418       .  A
C1130      H1134   1.081       .  S
C1131      C1136   1.400       .  A
C1131      C1140   1.406       .  A
C1136      C1137   1.402       .  A
C1136      H1141   1.083       .  S
C1137      C1138   1.420       .  A
C1137      H1142   1.083       .  S
C1138      C1139   1.410       .  A
C1139      C1140   1.398       .  A
C1139      H1143   1.079       .  S
C1140      H1144   1.083       .  S
C1145      C1146   1.411       .  A
C1145      C1150   1.407       .  A
C1145      H1155   1.082       .  S
C1146      C1151   1.503       .  S
C1146      C1147   1.406       .  A
C1147      C1148   1.397       .  A
C1147      H1152   1.082       .  S
C1148      C1149   1.410       .  A
C1148      H1153   1.083       .  S
C1149      C1150   1.413       .  A
C1150      H1154   1.081       .  S
C1151      C1156   1.409       .  A
C1151      C1160   1.412       .  A
C1156      C1157   1.404       .  A
C1156      H1161   1.082       .  S
C1157      C1158   1.408       .  A
C1157      H1162   1.083       .  S
C1158      C1159   1.401       .  A
C1159      C1160   1.400       .  A
C1159      H1163   1.083       .  S
C1160      H1164   1.082       .  S
C1165      C1166   1.413       .  A
C1165      C1170   1.406       .  A
C1165      H1175   1.081       .  S
C1166      C1171   1.506       .  S
C1166      C1167   1.406       .  A
C1167      C1168   1.396       .  A
C1167      H1172   1.081       .  S
C1168      C1169   1.411       .  A
C1168      H1173   1.083       .  S
C1169      C1170   1.411       .  A
C1170      H1174   1.081       .  S
C1171      C1176   1.410       .  A
C1171      C1180   1.414       .  A
C1176      C1177   1.403       .  A
C1176      H1181   1.082       .  S
C1177      C1178   1.407       .  A
C1177      H1182   1.083       .  S
C1178      C1179   1.401       .  A
C1179      C1180   1.401       .  A
C1179      H1183   1.083       .  S
C1180      H1184   1.081       .  S
C1185      C1186   1.400       .  A
C1185      C1190   1.396       .  A
C1185      H1195   1.083       .  S
C1186      C1191   1.489       .  S
C1186      C1187   1.405       .  A
C1187      C1188   1.402       .  A
C1187      H1192   1.083       .  S
C1188      C1189   1.413       .  A
C1188      H1193   1.083       .  S
C1189      C1190   1.420       .  A
C1190      H1194   1.079       .  S
C1191      C1196   1.405       .  A
C1191      C1200   1.399       .  A
C1196      C1197   1.400       .  A
C1196      H1201   1.083       .  S
C1197      C1198   1.416       .  A
C1197      H1202   1.083       .  S
C1198      C1199   1.420       .  A
C1199      C1200   1.398       .  A
C1199      H1203   1.077       .  S
C1200      H1204   1.083       .  S
C1205      C1206   1.403       .  A
C1205      C1210   1.396       .  A
C1205      H1215   1.083       .  S
C1206      C1211   1.484       .  S
C1206      C1207   1.397       .  A
C1207      C1208   1.400       .  A
C1207      H1212   1.083       .  S
C1208      C1209   1.423       .  A
C1208      H1213   1.077       .  S
C1209      C1210   1.415       .  A
C1210      H1214   1.083       .  S
C1211      C1216   1.404       .  A
C1211      C1220   1.397       .  A
C1216      C1217   1.405       .  A
C1216      H1221   1.083       .  S
C1217      C1218   1.416       .  A
C1217      H1222   1.083       .  S
C1218      C1219   1.418       .  A
C1219      C1220   1.391       .  A
C1219      H1223   1.079       .  S
C1220      H1224   1.084       .  S
C1225      C1226   1.404       .  A
C1225      C1230   1.399       .  A
C1225      H1235   1.083       .  S
C1226      C1231   1.488       .  S
C1226      C1227   1.403       .  A
C1227      C1228   1.403       .  A
C1227      H1232   1.083       .  S
C1228      C1229   1.419       .  A
C1228      H1233   1.083       .  S
C1229      C1230   1.412       .  A
C1230      H1234   1.078       .  S
C1231      C1236   1.401       .  A
C1231      C1240   1.403       .  A
C1236      C1237   1.403       .  A
C1236      H1241   1.083       .  S
C1237      C1238   1.419       .  A
C1237      H1242   1.080       .  S
C1238      C1239   1.414       .  A
C1239      C1240   1.395       .  A
C1239      H1243   1.082       .  S
C1240      H1244   1.083       .  S
C1245      C1246   1.412       .  A
C1245      C1250   1.405       .  A
C1245      H1255   1.082       .  S
C1246      C1251   1.505       .  S
C1246      C1247   1.409       .  A
C1247      C1248   1.403       .  A
C1247      H1252   1.082       .  S
C1248      C1249   1.407       .  A
C1248      H1253   1.083       .  S
C1249      C1250   1.404       .  A
C1250      H1254   1.083       .  S
C1251      C1256   1.405       .  A
C1251      C1260   1.411       .  A
C1256      C1257   1.398       .  A
C1256      H1261   1.082       .  S
C1257      C1258   1.413       .  A
C1257      H1262   1.083       .  S
C1258      C1259   1.412       .  A
C1259      C1260   1.407       .  A
C1259      H1263   1.079       .  S
C1260      H1264   1.082       .  S
C1265      C1266   1.412       .  A
C1265      C1270   1.408       .  A
C1265      H1275   1.082       .  S
C1266      C1271   1.505       .  S
C1266      C1267   1.409       .  A
C1267      C1268   1.401       .  A
C1267      H1272   1.082       .  S
C1268      C1269   1.405       .  A
C1268      H1273   1.083       .  S
C1269      C1270   1.407       .  A
C1270      H1274   1.083       .  S
C1271      C1276   1.406       .  A
C1271      C1280   1.410       .  A
C1276      C1277   1.402       .  A
C1276      H1281   1.082       .  S
C1277      C1278   1.415       .  A
C1277      H1282   1.083       .  S
C1278      C1279   1.411       .  A
C1279      C1280   1.405       .  A
C1279      H1283   1.080       .  S
C1280      H1284   1.082       .  S
C1285      C1286   1.401       .  A
C1285      C1290   1.404       .  A
C1285      H1295   1.083       .  S
C1286      C1291   1.478       .  S
C1286      C1287   1.397       .  A
C1287      C1288   1.392       .  A
C1287      H1292   1.084       .  S
C1288      C1289   1.418       .  A
C1288      H1293   1.077       .  S
C1289      C1290   1.418       .  A
C1290      H1294   1.083       .  S
C1291      C1296   1.404       .  A
C1291      C1300   1.398       .  A
C1296      C1297   1.403       .  A
C1296      H1301   1.083       .  S
C1297      C1298   1.412       .  A
C1297      H1302   1.080       .  S
C1298      C1299   1.415       .  A
C1299      C1300   1.394       .  A
C1299      H1303   1.083       .  S
C1300      H1304   1.083       .  S
C1305      C1306   1.391       .  A
C1305      C1310   1.385       .  A
C1305      H1315   1.084       .  S
C1306      C1311   1.478       .  S
C1306      C1307   1.404       .  A
C1307      C1308   1.409       .  A
C1307      H1312   1.083       .  S
C1308      C1309   1.418       .  A
C1308      H1313   1.083       .  S
C1309      C1310   1.422       .  A
C1310      H1314   1.073       .  S
C1311      C1316   1.398       .  A
C1311      C1320   1.402       .  A
C1316      C1317   1.401       .  A
C1316      H1321   1.083       .  S
C1317      C1318   1.420       .  A
C1317      H1322   1.079       .  S
C1318      C1319   1.413       .  A
C1319      C1320   1.393       .  A
C1319      H1323   1.083       .  S
C1320      H1324   1.084       .  S
C1325      C1326   1.407       .  A
C1325      C1330   1.407       .  A
C1325      H1335   1.083       .  S
C1326      C1331   1.492       .  S
C1326      C1327   1.402       .  A
C1327      C1328   1.393       .  A
C1327      H1332   1.083       .  S
C1328      C1329   1.415       .  A
C1328      H1333   1.083       .  S
C1329      C1330   1.414       .  A
C1330      H1334   1.081       .  S
C1331      C1336   1.404       .  A
C1331      C1340   1.406       .  A
C1336      C1337   1.402       .  A
C1336      H1341   1.082       .  S
C1337      C1338   1.415       .  A
C1337      H1342   1.083       .  S
C1338      C1339   1.412       .  A
C1339      C1340   1.399       .  A
C1339      H1343   1.080       .  S
C1340      H1344   1.083       .  S
C1345      C1346   1.410       .  A
C1345      C1350   1.405       .  A
C1345      H1355   1.082       .  S
C1346      C1351   1.498       .  S
C1346      C1347   1.404       .  A
C1347      C1348   1.397       .  A
C1347      H1352   1.082       .  S
C1348      C1349   1.414       .  A
C1348      H1353   1.083       .  S
C1349      C1350   1.411       .  A
C1350      H1354   1.080       .  S
C1351      C1356   1.407       .  A
C1351      C1360   1.411       .  A
C1356      C1357   1.400       .  A
C1356      H1361   1.083       .  S
C1357      C1358   1.407       .  A
C1357      H1362   1.083       .  S
C1358      C1359   1.403       .  A
C1359      C1360   1.403       .  A
C1359      H1363   1.083       .  S
C1360      H1364   1.082       .  S
C1365      C1366   1.402       .  A
C1365      C1370   1.406       .  A
C1365      H1375   1.083       .  S
C1366      C1371   1.474       .  S
C1366      C1367   1.391       .  A
C1367      C1368   1.390       .  A
C1367      H1372   1.084       .  S
C1368      C1369   1.422       .  A
C1368      H1373   1.076       .  S
C1369      C1370   1.419       .  A
C1370      H1374   1.083       .  S
C1371      C1376   1.399       .  A
C1371      C1380   1.399       .  A
C1376      C1377   1.401       .  A
C1376      H1381   1.083       .  S
C1377      C1378   1.418       .  A
C1377      H1382   1.080       .  S
C1378      C1379   1.414       .  A
C1379      C1380   1.397       .  A
C1379      H1383   1.083       .  S
C1380      H1384   1.083       .  S
C1385      C1386   1.407       .  A
C1385      C1390   1.405       .  A
C1385      H1395   1.082       .  S
C1386      C1391   1.498       .  S
C1386      C1387   1.405       .  A
C1387      C1388   1.396       .  A
C1387      H1392   1.082       .  S
C1388      C1389   1.412       .  A
C1388      H1393   1.083       .  S
C1389      C1390   1.414       .  A
C1390      H1394   1.078       .  S
C1391      C1396   1.409       .  A
C1391      C1400   1.409       .  A
C1396      C1397   1.405       .  A
C1396      H1401   1.082       .  S
C1397      C1398   1.406       .  A
C1397      H1402   1.083       .  S
C1398      C1399   1.403       .  A
C1399      C1400   1.397       .  A
C1399      H1403   1.083       .  S
C1400      H1404   1.082       .  S
C1405      C1406   1.401       .  A
C1405      C1410   1.395       .  A
C1405      H1415   1.083       .  S
C1406      C1411   1.479       .  S
C1406      C1407   1.403       .  A
C1407      C1408   1.401       .  A
C1407      H1412   1.083       .  S
C1408      C1409   1.413       .  A
C1408      H1413   1.083       .  S
C1409      C1410   1.413       .  A
C1410      H1414   1.081       .  S
C1411      C1416   1.400       .  A
C1411      C1420   1.403       .  A
C1416      C1417   1.398       .  A
C1416      H1421   1.083       .  S
C1417      C1418   1.415       .  A
C1417      H1422   1.083       .  S
C1418      C1419   1.413       .  A
C1419      C1420   1.398       .  A
C1419      H1423   1.081       .  S
C1420      H1424   1.083       .  S
C1425      C1426   1.399       .  A
C1425      C1430   1.404       .  A
C1425      H1435   1.083       .  S
C1426      C1431   1.479       .  S
C1426      C1427   1.399       .  A
C1427      C1428   1.396       .  A
C1427      H1432   1.083       .  S
C1428      C1429   1.416       .  A
C1428      H1433   1.082       .  S
C1429      C1430   1.420       .  A
C1430      H1434   1.078       .  S
C1431      C1436   1.403       .  A
C1431      C1440   1.394       .  A
C1436      C1437   1.407       .  A
C1436      H1441   1.083       .  S
C1437      C1438   1.417       .  A
C1437      H1442   1.083       .  S
C1438      C1439   1.422       .  A
C1439      C1440   1.392       .  A
C1439      H1443   1.077       .  S
C1440      H1444   1.084       .  S
C1445      C1446   1.408       .  A
C1445      C1450   1.406       .  A
C1445      H1455   1.083       .  S
C1446      C1451   1.489       .  S
C1446      C1447   1.395       .  A
C1447      C1448   1.391       .  A
C1447      H1452   1.083       .  S
C1448      C1449   1.423       .  A
C1448      H1453   1.077       .  S
C1449      C1450   1.414       .  A
C1450      H1454   1.083       .  S
C1451      C1456   1.398       .  A
C1451      C1460   1.407       .  A
C1456      C1457   1.395       .  A
C1456      H1461   1.083       .  S
C1457      C1458   1.420       .  A
C1457      H1462   1.078       .  S
C1458      C1459   1.413       .  A
C1459      C1460   1.404       .  A
C1459      H1463   1.083       .  S
C1460      H1464   1.083       .  S
C1465      C1466   1.407       .  A
C1465      C1470   1.407       .  A
C1465      H1475   1.083       .  S
C1466      C1471   1.493       .  S
C1466      C1467   1.402       .  A
C1467      C1468   1.396       .  A
C1467      H1472   1.083       .  S
C1468      C1469   1.414       .  A
C1468      H1473   1.083       .  S
C1469      C1470   1.415       .  A
C1470      H1474   1.079       .  S
C1471      C1476   1.406       .  A
C1471      C1480   1.408       .  A
C1476      C1477   1.405       .  A
C1476      H1481   1.083       .  S
C1477      C1478   1.408       .  A
C1477      H1482   1.083       .  S
C1478      C1479   1.404       .  A
C1479      C1480   1.400       .  A
C1479      H1483   1.083       .  S
C1480      H1484   1.083       .  S
C1485      C1486   1.402       .  A
C1485      C1490   1.401       .  A
C1485      H1495   1.083       .  S
C1486      C1491   1.479       .  S
C1486      C1487   1.402       .  A
C1487      C1488   1.394       .  A
C1487      H1492   1.083       .  S
C1488      C1489   1.412       .  A
C1488      H1493   1.080       .  S
C1489      C1490   1.415       .  A
C1490      H1494   1.083       .  S
C1491      C1496   1.404       .  A
C1491      C1500   1.399       .  A
C1496      C1497   1.401       .  A
C1496      H1501   1.083       .  S
C1497      C1498   1.413       .  A
C1497      H1502   1.081       .  S
C1498      C1499   1.414       .  A
C1499      C1500   1.396       .  A
C1499      H1503   1.083       .  S
C1500      H1504   1.083       .  S
